
     RDKit          3D

 30 33  0  0  0  0  0  0  0  0999 V2000
   -0.8808   -0.5158    0.3504 C   0  0  0  0  0  0  0  0  0  0  0  0
   -1.3340    0.5778    1.1290 O   0  0  0  0  0  0  0  0  0  0  0  0
   -0.3638    1.3059    1.9029 C   0  0  0  0  0  0  0  0  0  0  0  0
    0.8481    0.5080    2.5378 C   0  0  0  0  0  0  0  0  0  0  0  0
    0.9868   -0.7137    2.4028 O   0  0  0  0  0  0  0  0  0  0  0  0
    1.7588    1.1138    3.3872 N   0  0  0  0  0  0  0  0  0  0  0  0
    2.5272    2.2312    2.9639 C   0  0  0  0  0  0  0  0  0  0  0  0
    2.1740    3.5094    3.3871 C   0  0  0  0  0  0  0  0  0  0  0  0
    2.8653    4.6257    3.0760 N   0  0  0  0  0  0  0  0  0  0  0  0
    3.9675    4.4589    2.3124 C   0  0  0  0  0  0  0  0  0  0  0  0
    4.4391    3.2269    1.8518 C   0  0  0  0  0  0  0  0  0  0  0  0
    5.6039    3.1299    1.0663 C   0  0  0  0  0  0  0  0  0  0  0  0
    6.0743    1.8887    0.6139 C   0  0  0  0  0  0  0  0  0  0  0  0
    7.3124    1.7922   -0.2443 C   0  0  0  0  0  0  0  0  0  0  0  0
    8.1467    2.8597   -0.1043 F   0  0  0  0  0  0  0  0  0  0  0  0
    8.0657    0.6931    0.0390 F   0  0  0  0  0  0  0  0  0  0  0  0
    7.0194    1.7147   -1.5705 F   0  0  0  0  0  0  0  0  0  0  0  0
    5.3522    0.7382    0.9443 C   0  0  0  0  0  0  0  0  0  0  0  0
    4.1928    0.8248    1.7210 C   0  0  0  0  0  0  0  0  0  0  0  0
    3.7085    2.0683    2.1944 C   0  0  0  0  0  0  0  0  0  0  0  0
   -1.1906    1.8178    3.1028 C   0  0  0  0  0  0  0  0  0  0  0  0
   -2.1733    2.8720    2.6315 C   0  0  0  0  0  0  0  0  0  0  0  0
   -1.4841    4.0233    2.1479 O   0  0  0  0  0  0  0  0  0  0  0  0
   -0.5279    3.7485    1.2074 C   0  0  0  0  0  0  0  0  0  0  0  0
   -0.1148    4.8447    0.4455 C   0  0  0  0  0  0  0  0  0  0  0  0
    0.8699    4.6937   -0.5284 C   0  0  0  0  0  0  0  0  0  0  0  0
    1.4364    3.4417   -0.7373 C   0  0  0  0  0  0  0  0  0  0  0  0
    2.6728    3.2478   -1.9182 Cl  0  0  0  0  0  0  0  0  0  0  0  0
    1.0295    2.3427    0.0220 C   0  0  0  0  0  0  0  0  0  0  0  0
    0.0568    2.4843    1.0305 C   0  0  0  0  0  0  0  0  0  0  0  0
  1  2  1  0
  2  3  1  0
  3  4  1  0
  3 21  1  0
  3 30  1  0
  4  5  2  0
  4  6  1  0
  6  7  1  0
  7  8  2  0
  7 20  1  0
  8  9  1  0
  9 10  2  0
 10 11  1  0
 11 12  1  0
 11 20  2  0
 12 13  2  0
 13 14  1  0
 13 18  1  0
 14 15  1  0
 14 16  1  0
 14 17  1  0
 18 19  2  0
 19 20  1  0
 21 22  1  0
 22 23  1  0
 23 24  1  0
 24 25  2  0
 24 30  1  0
 25 26  1  0
 26 27  2  0
 27 28  1  0
 27 29  1  0
 29 30  2  0
M  END
$$$$
