
     RDKit          3D

 29 32  0  0  0  0  0  0  0  0999 V2000
   -0.2281    0.7158    1.4114 C   0  0  0  0  0  0  0  0  0  0  0  0
   -0.3088    2.1471    1.5121 N   0  0  0  0  0  0  0  0  0  0  0  0
   -0.4432    3.0934    0.5462 C   0  0  0  0  0  0  0  0  0  0  0  0
   -0.5053    4.2683    0.8972 O   0  0  0  0  0  0  0  0  0  0  0  0
   -0.5417    2.7122   -0.9205 C   0  0  0  0  0  0  0  0  0  0  0  0
    0.7786    2.3430   -1.7043 C   0  0  0  0  0  0  0  0  0  0  0  0
    0.8550    3.2532   -3.0069 C   0  0  0  0  0  0  0  0  0  0  0  0
    0.0553    4.1654   -3.2356 O   0  0  0  0  0  0  0  0  0  0  0  0
    1.9484    3.1590   -3.8690 N   0  0  0  0  0  0  0  0  0  0  0  0
    2.0127    2.0225   -4.7254 C   0  0  0  0  0  0  0  0  0  0  0  0
    2.9646    1.0400   -4.4730 C   0  0  0  0  0  0  0  0  0  0  0  0
    2.9263   -0.1931   -5.0204 N   0  0  0  0  0  0  0  0  0  0  0  0
    1.8971   -0.4464   -5.8616 C   0  0  0  0  0  0  0  0  0  0  0  0
    0.9332    0.4900   -6.2499 C   0  0  0  0  0  0  0  0  0  0  0  0
   -0.1215    0.1623   -7.1211 C   0  0  0  0  0  0  0  0  0  0  0  0
   -1.0461    1.1290   -7.5168 C   0  0  0  0  0  0  0  0  0  0  0  0
   -0.9205    2.4343   -7.0603 C   0  0  0  0  0  0  0  0  0  0  0  0
    0.0958    2.7598   -6.1628 C   0  0  0  0  0  0  0  0  0  0  0  0
    1.0246    1.7900   -5.7137 C   0  0  0  0  0  0  0  0  0  0  0  0
    0.6805    0.8369   -2.0718 C   0  0  0  0  0  0  0  0  0  0  0  0
    1.7292   -0.0689   -1.4457 C   0  0  0  0  0  0  0  0  0  0  0  0
    3.0310    0.4794   -1.3418 O   0  0  0  0  0  0  0  0  0  0  0  0
    3.0859    1.7314   -0.8093 C   0  0  0  0  0  0  0  0  0  0  0  0
    4.3052    2.0793   -0.2201 C   0  0  0  0  0  0  0  0  0  0  0  0
    4.5219    3.3749    0.2467 C   0  0  0  0  0  0  0  0  0  0  0  0
    3.5204    4.3264    0.1064 C   0  0  0  0  0  0  0  0  0  0  0  0
    3.7969    5.9451    0.6170 Cl  0  0  0  0  0  0  0  0  0  0  0  0
    2.3046    3.9819   -0.4820 C   0  0  0  0  0  0  0  0  0  0  0  0
    2.0596    2.6670   -0.9365 C   0  0  0  0  0  0  0  0  0  0  0  0
  1  2  1  0
  2  3  1  0
  3  4  2  0
  3  5  1  0
  5  6  1  0
  6  7  1  0
  6 20  1  0
  6 29  1  0
  7  8  2  0
  7  9  1  0
  9 10  1  0
 10 11  2  0
 10 19  1  0
 11 12  1  0
 12 13  2  0
 13 14  1  0
 14 15  1  0
 14 19  2  0
 15 16  2  0
 16 17  1  0
 17 18  2  0
 18 19  1  0
 20 21  1  0
 21 22  1  0
 22 23  1  0
 23 24  2  0
 23 29  1  0
 24 25  1  0
 25 26  2  0
 26 27  1  0
 26 28  1  0
 28 29  2  0
M  END
$$$$
