
     RDKit          3D

 32 36  0  0  0  0  0  0  0  0999 V2000
    1.4549   -0.6415   -0.9079 O   0  0  0  0  0  0  0  0  0  0  0  0
    2.4189   -0.3590   -0.1901 C   0  0  0  0  0  0  0  0  0  0  0  0
    3.5669   -1.0905   -0.4065 N   0  0  0  0  0  0  0  0  0  0  0  0
    4.7455   -0.4775   -0.9093 C   0  0  0  0  0  0  0  0  0  0  0  0
    4.7062    0.3129   -2.0581 C   0  0  0  0  0  0  0  0  0  0  0  0
    5.7921    0.8975   -2.6051 N   0  0  0  0  0  0  0  0  0  0  0  0
    6.9730    0.6796   -1.9812 C   0  0  0  0  0  0  0  0  0  0  0  0
    7.1386   -0.1139   -0.8423 C   0  0  0  0  0  0  0  0  0  0  0  0
    8.3946   -0.3007   -0.2370 C   0  0  0  0  0  0  0  0  0  0  0  0
    8.5253   -1.1022    0.8968 C   0  0  0  0  0  0  0  0  0  0  0  0
    7.4088   -1.7352    1.4306 C   0  0  0  0  0  0  0  0  0  0  0  0
    6.1586   -1.5592    0.8356 C   0  0  0  0  0  0  0  0  0  0  0  0
    5.9932   -0.7335   -0.2993 C   0  0  0  0  0  0  0  0  0  0  0  0
    2.3468    0.6980    0.9559 C   0  0  0  0  0  0  0  0  0  0  0  0
    3.0716    0.1576    2.2187 C   0  0  0  0  0  0  0  0  0  0  0  0
    2.5030   -1.1072    2.6010 O   0  0  0  0  0  0  0  0  0  0  0  0
    2.7473   -1.4052    3.9113 C   0  0  0  0  0  0  0  0  0  0  0  0
    2.0264   -0.7790    4.9266 C   0  0  0  0  0  0  0  0  0  0  0  0
    2.2334   -1.1559    6.2533 C   0  0  0  0  0  0  0  0  0  0  0  0
    3.1471   -2.1657    6.5575 C   0  0  0  0  0  0  0  0  0  0  0  0
    3.8498   -2.8043    5.5348 C   0  0  0  0  0  0  0  0  0  0  0  0
    3.6425   -2.4300    4.2068 C   0  0  0  0  0  0  0  0  0  0  0  0
    0.8488    0.8534    1.3476 C   0  0  0  0  0  0  0  0  0  0  0  0
    0.0811    1.6733    0.3256 C   0  0  0  0  0  0  0  0  0  0  0  0
    0.5986    2.9908    0.1960 O   0  0  0  0  0  0  0  0  0  0  0  0
    1.9601    3.0924    0.1475 C   0  0  0  0  0  0  0  0  0  0  0  0
    2.4188    4.3546   -0.2508 C   0  0  0  0  0  0  0  0  0  0  0  0
    3.7806    4.6366   -0.2838 C   0  0  0  0  0  0  0  0  0  0  0  0
    4.6802    3.6591    0.1153 C   0  0  0  0  0  0  0  0  0  0  0  0
    6.3681    3.9947    0.1073 Cl  0  0  0  0  0  0  0  0  0  0  0  0
    4.2255    2.4043    0.5335 C   0  0  0  0  0  0  0  0  0  0  0  0
    2.8547    2.0787    0.5280 C   0  0  0  0  0  0  0  0  0  0  0  0
  1  2  2  0
  2  3  1  0
  2 14  1  0
  3  4  1  0
  4  5  2  0
  4 13  1  0
  5  6  1  0
  6  7  2  0
  7  8  1  0
  8  9  1  0
  8 13  2  0
  9 10  2  0
 10 11  1  0
 11 12  2  0
 12 13  1  0
 14 15  1  0
 14 23  1  0
 14 32  1  0
 15 16  1  0
 16 17  1  0
 17 18  2  0
 17 22  1  0
 18 19  1  0
 19 20  2  0
 20 21  1  0
 21 22  2  0
 23 24  1  0
 24 25  1  0
 25 26  1  0
 26 27  2  0
 26 32  1  0
 27 28  1  0
 28 29  2  0
 29 30  1  0
 29 31  1  0
 31 32  2  0
M  END
$$$$
