
     RDKit          3D

 30 33  0  0  0  0  0  0  0  0999 V2000
    1.7455    0.4851   -0.8959 C   0  0  0  0  0  0  0  0  0  0  0  0
    0.9900   -0.1887   -1.9182 N   0  0  0  0  0  0  0  0  0  0  0  0
   -0.0366   -1.0373   -1.9293 C   0  0  0  0  0  0  0  0  0  0  0  0
   -0.5518   -1.2903   -3.0223 O   0  0  0  0  0  0  0  0  0  0  0  0
   -0.5555   -1.6155   -0.8522 N   0  0  0  0  0  0  0  0  0  0  0  0
   -0.2817   -1.6908    0.5725 C   0  0  0  0  0  0  0  0  0  0  0  0
   -1.3019   -0.9371    1.4943 C   0  0  0  0  0  0  0  0  0  0  0  0
   -2.7443   -1.3954    1.1284 C   0  0  0  0  0  0  0  0  0  0  0  0
   -3.0051   -1.9873    0.0750 O   0  0  0  0  0  0  0  0  0  0  0  0
   -3.8276   -0.9700    1.8973 N   0  0  0  0  0  0  0  0  0  0  0  0
   -4.0612   -1.7625    3.0629 C   0  0  0  0  0  0  0  0  0  0  0  0
   -3.7988   -1.2152    4.3118 C   0  0  0  0  0  0  0  0  0  0  0  0
   -3.6055   -1.9621    5.4169 N   0  0  0  0  0  0  0  0  0  0  0  0
   -3.6052   -3.3057    5.2379 C   0  0  0  0  0  0  0  0  0  0  0  0
   -3.9123   -3.9553    4.0354 C   0  0  0  0  0  0  0  0  0  0  0  0
   -3.8157   -5.3491    3.8657 C   0  0  0  0  0  0  0  0  0  0  0  0
   -4.1820   -5.9515    2.6597 C   0  0  0  0  0  0  0  0  0  0  0  0
   -4.6963   -5.1792    1.6277 C   0  0  0  0  0  0  0  0  0  0  0  0
   -4.7391   -3.7955    1.7658 C   0  0  0  0  0  0  0  0  0  0  0  0
   -4.2735   -3.1561    2.9412 C   0  0  0  0  0  0  0  0  0  0  0  0
   -1.2903    0.5853    1.1982 C   0  0  0  0  0  0  0  0  0  0  0  0
   -0.3077    1.3280    2.0757 C   0  0  0  0  0  0  0  0  0  0  0  0
   -0.6575    1.1582    3.4461 O   0  0  0  0  0  0  0  0  0  0  0  0
   -0.5671   -0.1549    3.8193 C   0  0  0  0  0  0  0  0  0  0  0  0
   -0.1545   -0.3770    5.1364 C   0  0  0  0  0  0  0  0  0  0  0  0
    0.0519   -1.6749    5.5931 C   0  0  0  0  0  0  0  0  0  0  0  0
   -0.1885   -2.7422    4.7352 C   0  0  0  0  0  0  0  0  0  0  0  0
    0.0909   -4.3511    5.2825 Cl  0  0  0  0  0  0  0  0  0  0  0  0
   -0.6567   -2.5225    3.4326 C   0  0  0  0  0  0  0  0  0  0  0  0
   -0.8610   -1.2144    2.9450 C   0  0  0  0  0  0  0  0  0  0  0  0
  1  2  1  0
  2  3  1  0
  3  4  2  0
  3  5  1  0
  5  6  1  0
  6  7  1  0
  7  8  1  0
  7 21  1  0
  7 30  1  0
  8  9  2  0
  8 10  1  0
 10 11  1  0
 11 12  2  0
 11 20  1  0
 12 13  1  0
 13 14  2  0
 14 15  1  0
 15 16  1  0
 15 20  2  0
 16 17  2  0
 17 18  1  0
 18 19  2  0
 19 20  1  0
 21 22  1  0
 22 23  1  0
 23 24  1  0
 24 25  2  0
 24 30  1  0
 25 26  1  0
 26 27  2  0
 27 28  1  0
 27 29  1  0
 29 30  2  0
M  END
$$$$
