
     RDKit          3D

 29 33  0  0  0  0  0  0  0  0999 V2000
    1.3767   -0.6056    1.0897 O   0  0  0  0  0  0  0  0  0  0  0  0
    2.3911   -0.4187    0.4089 C   0  0  0  0  0  0  0  0  0  0  0  0
    2.9614    0.8350    0.5190 N   0  0  0  0  0  0  0  0  0  0  0  0
    4.3445    1.0185    0.7745 C   0  0  0  0  0  0  0  0  0  0  0  0
    4.9429    0.4365    1.8928 C   0  0  0  0  0  0  0  0  0  0  0  0
    6.2399    0.6044    2.2287 N   0  0  0  0  0  0  0  0  0  0  0  0
    6.9760    1.3843    1.4051 C   0  0  0  0  0  0  0  0  0  0  0  0
    6.4830    2.0364    0.2712 C   0  0  0  0  0  0  0  0  0  0  0  0
    7.3055    2.8353   -0.5432 C   0  0  0  0  0  0  0  0  0  0  0  0
    6.7840    3.4807   -1.6635 C   0  0  0  0  0  0  0  0  0  0  0  0
    5.4361    3.3449   -1.9760 C   0  0  0  0  0  0  0  0  0  0  0  0
    4.6102    2.5534   -1.1747 C   0  0  0  0  0  0  0  0  0  0  0  0
    5.1172    1.8705   -0.0455 C   0  0  0  0  0  0  0  0  0  0  0  0
    2.8720   -1.4248   -0.6801 C   0  0  0  0  0  0  0  0  0  0  0  0
    2.5948   -0.7945   -2.0904 C   0  0  0  0  0  0  0  0  0  0  0  0
    1.2005   -0.8328   -2.5686 N   0  0  0  0  0  0  0  0  0  0  0  0
    0.3376    0.1886   -1.9175 C   0  0  0  0  0  0  0  0  0  0  0  0
   -0.2976    0.4235   -3.3018 C   0  0  0  0  0  0  0  0  0  0  0  0
    1.0601   -0.0676   -3.8399 C   0  0  0  0  0  0  0  0  0  0  0  0
    2.0732   -2.7476   -0.5497 C   0  0  0  0  0  0  0  0  0  0  0  0
    2.2858   -3.4366    0.7934 C   0  0  0  0  0  0  0  0  0  0  0  0
    3.6471   -3.3370    1.3029 N   0  0  0  0  0  0  0  0  0  0  0  0
    4.6441   -2.7926    0.5003 C   0  0  0  0  0  0  0  0  0  0  0  0
    5.9827   -3.1068    0.7750 C   0  0  0  0  0  0  0  0  0  0  0  0
    7.0209   -2.5539    0.0267 C   0  0  0  0  0  0  0  0  0  0  0  0
    6.7243   -1.6622   -0.9938 C   0  0  0  0  0  0  0  0  0  0  0  0
    7.9982   -0.9644   -1.9170 Cl  0  0  0  0  0  0  0  0  0  0  0  0
    5.4016   -1.3045   -1.2570 C   0  0  0  0  0  0  0  0  0  0  0  0
    4.3448   -1.8393   -0.4930 C   0  0  0  0  0  0  0  0  0  0  0  0
  1  2  2  0
  2  3  1  0
  2 14  1  0
  3  4  1  0
  4  5  2  0
  4 13  1  0
  5  6  1  0
  6  7  2  0
  7  8  1  0
  8  9  1  0
  8 13  2  0
  9 10  2  0
 10 11  1  0
 11 12  2  0
 12 13  1  0
 14 15  1  0
 14 20  1  0
 14 29  1  0
 15 16  1  0
 16 17  1  0
 16 19  1  0
 17 18  1  0
 18 19  1  0
 20 21  1  0
 21 22  1  0
 22 23  1  0
 23 24  2  0
 23 29  1  0
 24 25  1  0
 25 26  2  0
 26 27  1  0
 26 28  1  0
 28 29  2  0
M  END
$$$$
