
     RDKit          3D

 32 35  0  0  0  0  0  0  0  0999 V2000
   -1.7041    0.9254    1.2358 C   0  0  0  0  0  0  0  0  0  0  0  0
   -1.1782   -0.3639    0.5772 C   0  0  0  0  0  0  0  0  0  0  0  0
   -1.6732   -1.5888    1.3533 C   0  0  0  0  0  0  0  0  0  0  0  0
    0.2975   -0.3305    0.6225 C   0  0  0  0  0  0  0  0  0  0  0  0
    1.4593   -0.3318    0.6748 N   0  0  0  0  0  0  0  0  0  0  0  0
   -1.7120   -0.3956   -0.8766 C   0  0  0  0  0  0  0  0  0  0  0  0
   -1.0719   -1.3081   -1.8292 N   0  0  0  0  0  0  0  0  0  0  0  0
   -1.2077   -0.8116   -3.2159 C   0  0  0  0  0  0  0  0  0  0  0  0
   -0.0719    0.1252   -3.7958 C   0  0  0  0  0  0  0  0  0  0  0  0
   -0.6236    0.6368   -5.1658 C   0  0  0  0  0  0  0  0  0  0  0  0
   -1.4242   -0.0184   -5.8370 O   0  0  0  0  0  0  0  0  0  0  0  0
   -0.2618    1.9281   -5.5989 N   0  0  0  0  0  0  0  0  0  0  0  0
    0.8271    1.9408   -6.5425 C   0  0  0  0  0  0  0  0  0  0  0  0
    2.1108    1.6939   -6.0792 C   0  0  0  0  0  0  0  0  0  0  0  0
    2.9465    0.8367   -6.6981 N   0  0  0  0  0  0  0  0  0  0  0  0
    2.4384    0.1870   -7.7747 C   0  0  0  0  0  0  0  0  0  0  0  0
    1.2208    0.5045   -8.3933 C   0  0  0  0  0  0  0  0  0  0  0  0
    0.6580   -0.2114   -9.4635 C   0  0  0  0  0  0  0  0  0  0  0  0
   -0.5279    0.2228  -10.0660 C   0  0  0  0  0  0  0  0  0  0  0  0
   -1.1378    1.4011   -9.6478 C   0  0  0  0  0  0  0  0  0  0  0  0
   -0.6427    2.0614   -8.5319 C   0  0  0  0  0  0  0  0  0  0  0  0
    0.4875    1.5612   -7.8496 C   0  0  0  0  0  0  0  0  0  0  0  0
    1.1930   -0.7404   -4.0119 C   0  0  0  0  0  0  0  0  0  0  0  0
    2.2026   -0.6171   -2.8838 C   0  0  0  0  0  0  0  0  0  0  0  0
    2.5513    0.7318   -2.5951 O   0  0  0  0  0  0  0  0  0  0  0  0
    1.4908    1.5651   -2.3924 C   0  0  0  0  0  0  0  0  0  0  0  0
    1.7702    2.7440   -1.6961 C   0  0  0  0  0  0  0  0  0  0  0  0
    0.7876    3.7212   -1.5268 C   0  0  0  0  0  0  0  0  0  0  0  0
   -0.4792    3.5153   -2.0540 C   0  0  0  0  0  0  0  0  0  0  0  0
   -1.6941    4.7209   -1.9001 Cl  0  0  0  0  0  0  0  0  0  0  0  0
   -0.7672    2.3361   -2.7333 C   0  0  0  0  0  0  0  0  0  0  0  0
    0.2194    1.3405   -2.9193 C   0  0  0  0  0  0  0  0  0  0  0  0
  1  2  1  0
  2  3  1  0
  2  4  1  0
  2  6  1  0
  4  5  3  0
  6  7  1  0
  7  8  1  0
  8  9  1  0
  9 10  1  0
  9 23  1  0
  9 32  1  0
 10 11  2  0
 10 12  1  0
 12 13  1  0
 13 14  2  0
 13 22  1  0
 14 15  1  0
 15 16  2  0
 16 17  1  0
 17 18  1  0
 17 22  2  0
 18 19  2  0
 19 20  1  0
 20 21  2  0
 21 22  1  0
 23 24  1  0
 24 25  1  0
 25 26  1  0
 26 27  2  0
 26 32  1  0
 27 28  1  0
 28 29  2  0
 29 30  1  0
 29 31  1  0
 31 32  2  0
M  END
$$$$
