
     RDKit          3D

 32 35  0  0  0  0  0  0  0  0999 V2000
    0.8120    0.9876    0.2212 C   0  0  0  0  0  0  0  0  0  0  0  0
    0.1357    0.7041    1.4775 N   0  0  0  0  0  0  0  0  0  0  0  0
   -0.4241    1.8505    2.1747 C   0  0  0  0  0  0  0  0  0  0  0  0
   -0.0014   -0.6147    1.8748 C   0  0  0  0  0  0  0  0  0  0  0  0
    0.3951   -1.5473    1.1697 O   0  0  0  0  0  0  0  0  0  0  0  0
   -0.7111   -0.9327    3.2032 C   0  0  0  0  0  0  0  0  0  0  0  0
   -0.3649   -0.4295    4.4707 O   0  0  0  0  0  0  0  0  0  0  0  0
    0.9944   -0.1189    4.7717 C   0  0  0  0  0  0  0  0  0  0  0  0
    2.1195   -1.2535    4.8919 C   0  0  0  0  0  0  0  0  0  0  0  0
    3.1498   -0.5759    6.1924 C   0  0  0  0  0  0  0  0  0  0  0  0
    3.3603    0.6356    5.8859 O   0  0  0  0  0  0  0  0  0  0  0  0
    3.8083   -1.5988    7.7266 N   0  0  0  0  0  0  0  0  0  0  0  0
    3.5181   -3.0418    7.8915 C   0  0  0  0  0  0  0  0  0  0  0  0
    4.5048   -4.0382    7.6784 C   0  0  0  0  0  0  0  0  0  0  0  0
    5.4841   -4.1146    6.7020 N   0  0  0  0  0  0  0  0  0  0  0  0
    5.6084   -3.0629    5.8870 C   0  0  0  0  0  0  0  0  0  0  0  0
    4.7352   -2.0506    6.1342 C   0  0  0  0  0  0  0  0  0  0  0  0
    5.3358   -0.5171    6.7474 C   0  0  0  0  0  0  0  0  0  0  0  0
    4.3836    0.4924    7.8589 C   0  0  0  0  0  0  0  0  0  0  0  0
    2.7196    0.1232    8.3217 C   0  0  0  0  0  0  0  0  0  0  0  0
    1.9298   -1.3238    7.7633 C   0  0  0  0  0  0  0  0  0  0  0  0
    3.0967   -2.4381    6.8874 C   0  0  0  0  0  0  0  0  0  0  0  0
    3.0269   -1.0865    3.6047 C   0  0  0  0  0  0  0  0  0  0  0  0
    3.2132   -2.3329    2.7589 C   0  0  0  0  0  0  0  0  0  0  0  0
    3.3456   -3.5021    3.5503 O   0  0  0  0  0  0  0  0  0  0  0  0
    2.1843   -3.7186    4.2397 C   0  0  0  0  0  0  0  0  0  0  0  0
    1.7318   -5.0376    4.2863 C   0  0  0  0  0  0  0  0  0  0  0  0
    0.5637   -5.3446    4.9763 C   0  0  0  0  0  0  0  0  0  0  0  0
   -0.1282   -4.3306    5.6296 C   0  0  0  0  0  0  0  0  0  0  0  0
   -1.5703   -4.7011    6.4924 Cl  0  0  0  0  0  0  0  0  0  0  0  0
    0.3420   -3.0141    5.6037 C   0  0  0  0  0  0  0  0  0  0  0  0
    1.5200   -2.6752    4.9080 C   0  0  0  0  0  0  0  0  0  0  0  0
  1  2  1  0
  2  3  1  0
  2  4  1  0
  4  5  2  0
  4  6  1  0
  6  7  1  0
  7  8  1  0
  8  9  1  0
  9 10  1  0
  9 23  1  0
  9 32  1  0
 10 11  2  0
 10 12  1  0
 12 13  1  0
 13 14  2  0
 13 22  1  0
 14 15  1  0
 15 16  2  0
 16 17  1  0
 17 18  1  0
 17 22  2  0
 18 19  2  0
 19 20  1  0
 20 21  2  0
 21 22  1  0
 23 24  1  0
 24 25  1  0
 25 26  1  0
 26 27  2  0
 26 32  1  0
 27 28  1  0
 28 29  2  0
 29 30  1  0
 29 31  1  0
 31 32  2  0
M  END
$$$$
