
     RDKit          3D

 33 37  0  0  0  0  0  0  0  0999 V2000
    1.5445    0.8734   -0.2386 O   0  0  0  0  0  0  0  0  0  0  0  0
    2.3913    0.0759    0.1727 C   0  0  0  0  0  0  0  0  0  0  0  0
    2.8239   -0.8873   -0.7183 N   0  0  0  0  0  0  0  0  0  0  0  0
    4.1299   -0.7799   -1.2879 C   0  0  0  0  0  0  0  0  0  0  0  0
    4.5739    0.4293   -1.8295 C   0  0  0  0  0  0  0  0  0  0  0  0
    5.7696    0.5988   -2.4327 N   0  0  0  0  0  0  0  0  0  0  0  0
    6.5652   -0.4930   -2.4933 C   0  0  0  0  0  0  0  0  0  0  0  0
    6.2215   -1.7608   -2.0134 C   0  0  0  0  0  0  0  0  0  0  0  0
    7.0943   -2.8582   -2.1247 C   0  0  0  0  0  0  0  0  0  0  0  0
    6.7182   -4.1163   -1.6560 C   0  0  0  0  0  0  0  0  0  0  0  0
    5.4658   -4.2938   -1.0788 C   0  0  0  0  0  0  0  0  0  0  0  0
    4.5923   -3.2104   -0.9600 C   0  0  0  0  0  0  0  0  0  0  0  0
    4.9546   -1.9200   -1.4100 C   0  0  0  0  0  0  0  0  0  0  0  0
    2.9264    0.0749    1.6440 C   0  0  0  0  0  0  0  0  0  0  0  0
    4.2499    0.9041    1.7595 C   0  0  0  0  0  0  0  0  0  0  0  0
    5.4619    0.2174    1.3281 N   0  0  0  0  0  0  0  0  0  0  0  0
    6.6489    1.0538    1.1379 C   0  0  0  0  0  0  0  0  0  0  0  0
    7.4944    1.3667    2.3903 C   0  0  0  0  0  0  0  0  0  0  0  0
    8.9309    1.7507    1.9656 C   0  0  0  0  0  0  0  0  0  0  0  0
    9.5920    0.6360    1.3740 O   0  0  0  0  0  0  0  0  0  0  0  0
    6.9256    2.4604    3.3521 C   0  0  0  0  0  0  0  0  0  0  0  0
    7.4287    1.6233    4.5436 C   0  0  0  0  0  0  0  0  0  0  0  0
    7.4461    0.3933    3.6188 C   0  0  0  0  0  0  0  0  0  0  0  0
    3.1591   -1.3595    2.1693 C   0  0  0  0  0  0  0  0  0  0  0  0
    1.8330   -2.0617    2.3841 C   0  0  0  0  0  0  0  0  0  0  0  0
    1.0968   -1.4498    3.4380 O   0  0  0  0  0  0  0  0  0  0  0  0
    1.0182   -0.0865    3.3608 C   0  0  0  0  0  0  0  0  0  0  0  0
    0.0539    0.4908    4.1935 C   0  0  0  0  0  0  0  0  0  0  0  0
   -0.1330    1.8712    4.2069 C   0  0  0  0  0  0  0  0  0  0  0  0
    0.6480    2.6726    3.3831 C   0  0  0  0  0  0  0  0  0  0  0  0
    0.4145    4.3775    3.3796 Cl  0  0  0  0  0  0  0  0  0  0  0  0
    1.6229    2.1044    2.5603 C   0  0  0  0  0  0  0  0  0  0  0  0
    1.8409    0.7102    2.5487 C   0  0  0  0  0  0  0  0  0  0  0  0
  1  2  2  0
  2  3  1  0
  2 14  1  0
  3  4  1  0
  4  5  2  0
  4 13  1  0
  5  6  1  0
  6  7  2  0
  7  8  1  0
  8  9  1  0
  8 13  2  0
  9 10  2  0
 10 11  1  0
 11 12  2  0
 12 13  1  0
 14 15  1  0
 14 24  1  0
 14 33  1  0
 15 16  1  0
 16 17  1  0
 17 18  1  0
 18 19  1  0
 18 21  1  0
 18 23  1  0
 19 20  1  0
 21 22  1  0
 22 23  1  0
 24 25  1  0
 25 26  1  0
 26 27  1  0
 27 28  2  0
 27 33  1  0
 28 29  1  0
 29 30  2  0
 30 31  1  0
 30 32  1  0
 32 33  2  0
M  END
$$$$
