
     RDKit          3D

 25 28  0  0  0  0  0  0  0  0999 V2000
    1.8046    0.3889    0.5013 C   0  0  0  0  0  0  0  0  0  0  0  0
    1.6225   -1.0996    0.8830 C   0  0  0  0  0  0  0  0  0  0  0  0
    0.7113   -1.1275    2.1694 C   0  0  0  0  0  0  0  0  0  0  0  0
    0.9479   -0.3668    3.1214 O   0  0  0  0  0  0  0  0  0  0  0  0
   -0.2313   -2.1015    2.4076 N   0  0  0  0  0  0  0  0  0  0  0  0
   -1.3224   -2.3227    1.5299 C   0  0  0  0  0  0  0  0  0  0  0  0
   -1.4927   -3.6052    1.0134 C   0  0  0  0  0  0  0  0  0  0  0  0
   -2.5051   -3.9665    0.1983 N   0  0  0  0  0  0  0  0  0  0  0  0
   -3.3930   -2.9970   -0.1157 C   0  0  0  0  0  0  0  0  0  0  0  0
   -3.3479   -1.6855    0.3659 C   0  0  0  0  0  0  0  0  0  0  0  0
   -4.3218   -0.7375    0.0048 C   0  0  0  0  0  0  0  0  0  0  0  0
   -4.2759    0.5591    0.5123 C   0  0  0  0  0  0  0  0  0  0  0  0
   -3.2628    0.9200    1.3908 C   0  0  0  0  0  0  0  0  0  0  0  0
   -2.2867   -0.0117    1.7526 C   0  0  0  0  0  0  0  0  0  0  0  0
   -2.2939   -1.3317    1.2379 C   0  0  0  0  0  0  0  0  0  0  0  0
    2.9912   -1.5293    1.3206 N   0  0  0  0  0  0  0  0  0  0  0  0
    3.0550   -2.9730    1.5312 C   0  0  0  0  0  0  0  0  0  0  0  0
    2.8513   -3.7221    0.2174 C   0  0  0  0  0  0  0  0  0  0  0  0
    1.7035   -3.1829   -0.6015 C   0  0  0  0  0  0  0  0  0  0  0  0
    1.2556   -3.9312   -1.7032 C   0  0  0  0  0  0  0  0  0  0  0  0
    0.2546   -3.4369   -2.5358 C   0  0  0  0  0  0  0  0  0  0  0  0
   -0.2897   -2.1845   -2.2821 C   0  0  0  0  0  0  0  0  0  0  0  0
   -1.5286   -1.5670   -3.3055 Cl  0  0  0  0  0  0  0  0  0  0  0  0
    0.1530   -1.4246   -1.1978 C   0  0  0  0  0  0  0  0  0  0  0  0
    1.1471   -1.9131   -0.3258 C   0  0  0  0  0  0  0  0  0  0  0  0
  1  2  1  0
  2  3  1  0
  2 16  1  0
  2 25  1  0
  3  4  2  0
  3  5  1  0
  5  6  1  0
  6  7  2  0
  6 15  1  0
  7  8  1  0
  8  9  2  0
  9 10  1  0
 10 11  1  0
 10 15  2  0
 11 12  2  0
 12 13  1  0
 13 14  2  0
 14 15  1  0
 16 17  1  0
 17 18  1  0
 18 19  1  0
 19 20  2  0
 19 25  1  0
 20 21  1  0
 21 22  2  0
 22 23  1  0
 22 24  1  0
 24 25  2  0
M  END
$$$$
