
     RDKit          3D

 27 30  0  0  0  0  0  0  0  0999 V2000
    1.6625    0.4668    0.2093 C   0  0  0  0  0  0  0  0  0  0  0  0
    1.2765   -0.1995    1.4049 O   0  0  0  0  0  0  0  0  0  0  0  0
    1.5638   -1.6024    1.3965 C   0  0  0  0  0  0  0  0  0  0  0  0
    0.4339   -2.4968    0.7781 C   0  0  0  0  0  0  0  0  0  0  0  0
    0.6605   -2.6142   -0.7586 C   0  0  0  0  0  0  0  0  0  0  0  0
    1.7189   -2.2792   -1.2990 O   0  0  0  0  0  0  0  0  0  0  0  0
   -0.3353   -3.0918   -1.5909 N   0  0  0  0  0  0  0  0  0  0  0  0
   -0.8836   -4.3938   -1.4096 C   0  0  0  0  0  0  0  0  0  0  0  0
   -0.0516   -5.5138   -1.4223 C   0  0  0  0  0  0  0  0  0  0  0  0
   -0.4794   -6.7808   -1.2534 N   0  0  0  0  0  0  0  0  0  0  0  0
   -1.8118   -6.9432   -1.0908 C   0  0  0  0  0  0  0  0  0  0  0  0
   -2.7514   -5.9096   -1.1334 C   0  0  0  0  0  0  0  0  0  0  0  0
   -4.1300   -6.1561   -1.0048 C   0  0  0  0  0  0  0  0  0  0  0  0
   -5.0493   -5.1114   -1.0869 C   0  0  0  0  0  0  0  0  0  0  0  0
   -4.6034   -3.8131   -1.3052 C   0  0  0  0  0  0  0  0  0  0  0  0
   -3.2359   -3.5561   -1.4267 C   0  0  0  0  0  0  0  0  0  0  0  0
   -2.2792   -4.5924   -1.3248 C   0  0  0  0  0  0  0  0  0  0  0  0
   -0.9504   -1.8782    1.0687 C   0  0  0  0  0  0  0  0  0  0  0  0
   -1.3495   -2.1567    2.5040 C   0  0  0  0  0  0  0  0  0  0  0  0
   -1.5187   -3.5586    2.7000 O   0  0  0  0  0  0  0  0  0  0  0  0
   -0.4279   -4.3046    2.3528 C   0  0  0  0  0  0  0  0  0  0  0  0
   -0.3914   -5.5087    2.9610 N   0  0  0  0  0  0  0  0  0  0  0  0
    0.6736   -6.3026    2.7034 C   0  0  0  0  0  0  0  0  0  0  0  0
    1.7198   -5.9372    1.8771 C   0  0  0  0  0  0  0  0  0  0  0  0
    3.0541   -6.9829    1.6185 Cl  0  0  0  0  0  0  0  0  0  0  0  0
    1.6633   -4.6952    1.2552 C   0  0  0  0  0  0  0  0  0  0  0  0
    0.5498   -3.8602    1.4599 C   0  0  0  0  0  0  0  0  0  0  0  0
  1  2  1  0
  2  3  1  0
  3  4  1  0
  4  5  1  0
  4 18  1  0
  4 27  1  0
  5  6  2  0
  5  7  1  0
  7  8  1  0
  8  9  2  0
  8 17  1  0
  9 10  1  0
 10 11  2  0
 11 12  1  0
 12 13  1  0
 12 17  2  0
 13 14  2  0
 14 15  1  0
 15 16  2  0
 16 17  1  0
 18 19  1  0
 19 20  1  0
 20 21  1  0
 21 22  2  0
 21 27  1  0
 22 23  1  0
 23 24  2  0
 24 25  1  0
 24 26  1  0
 26 27  2  0
M  END
$$$$
