
     RDKit          3D

 29 32  0  0  0  0  0  0  0  0999 V2000
    1.4766    0.6422   -0.5196 O   0  0  0  0  0  0  0  0  0  0  0  0
    2.5401    0.3013    0.0080 C   0  0  0  0  0  0  0  0  0  0  0  0
    3.2069   -0.7583   -0.5869 N   0  0  0  0  0  0  0  0  0  0  0  0
    4.6031   -0.6781   -0.8308 C   0  0  0  0  0  0  0  0  0  0  0  0
    5.0907    0.2391   -1.7626 C   0  0  0  0  0  0  0  0  0  0  0  0
    6.3986    0.4078   -2.0424 N   0  0  0  0  0  0  0  0  0  0  0  0
    7.2629   -0.3781   -1.3606 C   0  0  0  0  0  0  0  0  0  0  0  0
    6.8916   -1.3497   -0.4262 C   0  0  0  0  0  0  0  0  0  0  0  0
    7.8435   -2.1413    0.2404 C   0  0  0  0  0  0  0  0  0  0  0  0
    7.4425   -3.1146    1.1543 C   0  0  0  0  0  0  0  0  0  0  0  0
    6.0894   -3.3149    1.4037 C   0  0  0  0  0  0  0  0  0  0  0  0
    5.1353   -2.5327    0.7493 C   0  0  0  0  0  0  0  0  0  0  0  0
    5.5151   -1.5241   -0.1641 C   0  0  0  0  0  0  0  0  0  0  0  0
    3.0539    0.9018    1.3785 C   0  0  0  0  0  0  0  0  0  0  0  0
    4.4564    1.1190    1.2522 O   0  0  0  0  0  0  0  0  0  0  0  0
    5.2026    1.2209    2.4387 C   0  0  0  0  0  0  0  0  0  0  0  0
    4.5958    2.0108    3.3423 F   0  0  0  0  0  0  0  0  0  0  0  0
    5.3942   -0.0028    2.9679 F   0  0  0  0  0  0  0  0  0  0  0  0
    6.4070    1.7506    2.1462 F   0  0  0  0  0  0  0  0  0  0  0  0
    2.6434   -0.1028    2.4733 C   0  0  0  0  0  0  0  0  0  0  0  0
    1.1485    0.0048    2.7270 C   0  0  0  0  0  0  0  0  0  0  0  0
    0.8053    1.2934    3.2364 O   0  0  0  0  0  0  0  0  0  0  0  0
    1.3017    2.3466    2.5180 C   0  0  0  0  0  0  0  0  0  0  0  0
    0.6971    3.5813    2.7639 C   0  0  0  0  0  0  0  0  0  0  0  0
    1.1269    4.7228    2.0872 C   0  0  0  0  0  0  0  0  0  0  0  0
    2.1661    4.6256    1.1670 C   0  0  0  0  0  0  0  0  0  0  0  0
    2.6957    6.0282    0.3234 Cl  0  0  0  0  0  0  0  0  0  0  0  0
    2.7863    3.3994    0.9284 C   0  0  0  0  0  0  0  0  0  0  0  0
    2.3694    2.2431    1.6167 C   0  0  0  0  0  0  0  0  0  0  0  0
  1  2  2  0
  2  3  1  0
  2 14  1  0
  3  4  1  0
  4  5  2  0
  4 13  1  0
  5  6  1  0
  6  7  2  0
  7  8  1  0
  8  9  1  0
  8 13  2  0
  9 10  2  0
 10 11  1  0
 11 12  2  0
 12 13  1  0
 14 15  1  0
 14 20  1  0
 14 29  1  0
 15 16  1  0
 16 17  1  0
 16 18  1  0
 16 19  1  0
 20 21  1  0
 21 22  1  0
 22 23  1  0
 23 24  2  0
 23 29  1  0
 24 25  1  0
 25 26  2  0
 26 27  1  0
 26 28  1  0
 28 29  2  0
M  END
$$$$
