
     RDKit          3D

 32 35  0  0  0  0  0  0  0  0999 V2000
    1.4776    0.2783   -0.7239 O   0  0  0  0  0  0  0  0  0  0  0  0
    2.6106   -0.1064   -0.4122 C   0  0  0  0  0  0  0  0  0  0  0  0
    3.5244   -0.2270   -1.4478 N   0  0  0  0  0  0  0  0  0  0  0  0
    4.9053    0.0309   -1.2680 C   0  0  0  0  0  0  0  0  0  0  0  0
    5.3554    1.3504   -1.2432 C   0  0  0  0  0  0  0  0  0  0  0  0
    6.6420    1.7089   -1.0516 N   0  0  0  0  0  0  0  0  0  0  0  0
    7.5203    0.6984   -0.8607 C   0  0  0  0  0  0  0  0  0  0  0  0
    7.1957   -0.6609   -0.8980 C   0  0  0  0  0  0  0  0  0  0  0  0
    8.1638   -1.6627   -0.6983 C   0  0  0  0  0  0  0  0  0  0  0  0
    7.8214   -3.0113   -0.7868 C   0  0  0  0  0  0  0  0  0  0  0  0
    6.5204   -3.3723   -1.1137 C   0  0  0  0  0  0  0  0  0  0  0  0
    5.5543   -2.3842   -1.3151 C   0  0  0  0  0  0  0  0  0  0  0  0
    5.8539   -1.0116   -1.1584 C   0  0  0  0  0  0  0  0  0  0  0  0
    2.9787   -0.5242    1.0501 C   0  0  0  0  0  0  0  0  0  0  0  0
    4.1372    0.1858    1.5224 O   0  0  0  0  0  0  0  0  0  0  0  0
    4.3294    0.1387    2.9497 C   0  0  0  0  0  0  0  0  0  0  0  0
    3.3082    0.9688    3.7751 C   0  0  0  0  0  0  0  0  0  0  0  0
    1.8517    0.5353    3.8543 O   0  0  0  0  0  0  0  0  0  0  0  0
    0.0415    0.3075    3.0568 C   0  0  0  0  0  0  0  0  0  0  0  0
   -0.5738    1.4208    2.4803 F   0  0  0  0  0  0  0  0  0  0  0  0
   -0.1277   -0.6703    2.0728 F   0  0  0  0  0  0  0  0  0  0  0  0
   -0.9492   -0.0788    3.9671 F   0  0  0  0  0  0  0  0  0  0  0  0
    3.2149   -2.0531    1.1115 C   0  0  0  0  0  0  0  0  0  0  0  0
    2.0958   -2.8536    1.7775 C   0  0  0  0  0  0  0  0  0  0  0  0
    1.9631   -2.5834    3.1740 O   0  0  0  0  0  0  0  0  0  0  0  0
    1.5853   -1.2873    3.3466 C   0  0  0  0  0  0  0  0  0  0  0  0
    0.9118   -0.7513    4.9137 C   0  0  0  0  0  0  0  0  0  0  0  0
    0.5610    1.0040    5.1844 C   0  0  0  0  0  0  0  0  0  0  0  0
    0.8926    2.2040    3.8869 C   0  0  0  0  0  0  0  0  0  0  0  0
    0.6589    3.8761    4.1957 Cl  0  0  0  0  0  0  0  0  0  0  0  0
    1.5500    1.6663    2.2794 C   0  0  0  0  0  0  0  0  0  0  0  0
    1.9163   -0.0927    2.0226 C   0  0  0  0  0  0  0  0  0  0  0  0
  1  2  2  0
  2  3  1  0
  2 14  1  0
  3  4  1  0
  4  5  2  0
  4 13  1  0
  5  6  1  0
  6  7  2  0
  7  8  1  0
  8  9  1  0
  8 13  2  0
  9 10  2  0
 10 11  1  0
 11 12  2  0
 12 13  1  0
 14 15  1  0
 14 23  1  0
 14 32  1  0
 15 16  1  0
 16 17  1  0
 17 18  1  0
 18 19  1  0
 19 20  1  0
 19 21  1  0
 19 22  1  0
 23 24  1  0
 24 25  1  0
 25 26  1  0
 26 27  2  0
 26 32  1  0
 27 28  1  0
 28 29  2  0
 29 30  1  0
 29 31  1  0
 31 32  2  0
M  END
$$$$
