
     RDKit          3D

 28 31  0  0  0  0  0  0  0  0999 V2000
    0.4967    0.8491    1.8415 C   0  0  0  0  0  0  0  0  0  0  0  0
   -0.2692   -0.4372    1.5839 C   0  0  0  0  0  0  0  0  0  0  0  0
    0.6679   -1.5323    1.3437 N   0  0  0  0  0  0  0  0  0  0  0  0
   -0.0411   -2.7545    0.9366 C   0  0  0  0  0  0  0  0  0  0  0  0
    0.7974   -3.9853    0.3210 C   0  0  0  0  0  0  0  0  0  0  0  0
    1.5460   -3.2679   -1.1721 C   0  0  0  0  0  0  0  0  0  0  0  0
    1.8406   -2.0600   -0.9385 O   0  0  0  0  0  0  0  0  0  0  0  0
    1.8332   -4.3103   -2.8020 N   0  0  0  0  0  0  0  0  0  0  0  0
    1.4761   -5.7403   -2.8869 C   0  0  0  0  0  0  0  0  0  0  0  0
    2.4547   -6.7651   -2.8948 C   0  0  0  0  0  0  0  0  0  0  0  0
    3.6092   -6.8787   -2.1395 N   0  0  0  0  0  0  0  0  0  0  0  0
    3.9394   -5.8330   -1.3745 C   0  0  0  0  0  0  0  0  0  0  0  0
    3.0695   -4.7909   -1.4412 C   0  0  0  0  0  0  0  0  0  0  0  0
    3.5662   -3.2754   -2.1791 C   0  0  0  0  0  0  0  0  0  0  0  0
    2.4263   -2.2388   -3.0673 C   0  0  0  0  0  0  0  0  0  0  0  0
    0.6890   -2.5606   -3.1544 C   0  0  0  0  0  0  0  0  0  0  0  0
    0.0005   -3.9858   -2.4232 C   0  0  0  0  0  0  0  0  0  0  0  0
    1.2999   -5.1325   -1.8159 C   0  0  0  0  0  0  0  0  0  0  0  0
   -0.2903   -5.1291    0.3098 C   0  0  0  0  0  0  0  0  0  0  0  0
   -0.4600   -5.7543    1.6863 C   0  0  0  0  0  0  0  0  0  0  0  0
    0.7471   -6.4033    2.0687 O   0  0  0  0  0  0  0  0  0  0  0  0
    1.8211   -5.5555    2.0917 C   0  0  0  0  0  0  0  0  0  0  0  0
    2.8606   -5.9627    2.9354 C   0  0  0  0  0  0  0  0  0  0  0  0
    3.9970   -5.1740    3.0841 C   0  0  0  0  0  0  0  0  0  0  0  0
    4.0853   -3.9758    2.3882 C   0  0  0  0  0  0  0  0  0  0  0  0
    5.4838   -2.9885    2.5668 Cl  0  0  0  0  0  0  0  0  0  0  0  0
    3.0578   -3.5765    1.5293 C   0  0  0  0  0  0  0  0  0  0  0  0
    1.9122   -4.3754    1.3343 C   0  0  0  0  0  0  0  0  0  0  0  0
  1  2  1  0
  2  3  1  0
  3  4  1  0
  4  5  1  0
  5  6  1  0
  5 19  1  0
  5 28  1  0
  6  7  2  0
  6  8  1  0
  8  9  1  0
  9 10  2  0
  9 18  1  0
 10 11  1  0
 11 12  2  0
 12 13  1  0
 13 14  1  0
 13 18  2  0
 14 15  2  0
 15 16  1  0
 16 17  2  0
 17 18  1  0
 19 20  1  0
 20 21  1  0
 21 22  1  0
 22 23  2  0
 22 28  1  0
 23 24  1  0
 24 25  2  0
 25 26  1  0
 25 27  1  0
 27 28  2  0
M  END
$$$$
