
     RDKit          3D

 29 32  0  0  0  0  0  0  0  0999 V2000
    1.5984    1.0738    1.9087 O   0  0  0  0  0  0  0  0  0  0  0  0
    2.7559    0.8287    1.6169 C   0  0  0  0  0  0  0  0  0  0  0  0
    3.2039   -0.4441    1.4974 O   0  0  0  0  0  0  0  0  0  0  0  0
    3.8182    1.8964    1.3107 C   0  0  0  0  0  0  0  0  0  0  0  0
    3.7320    2.7024    0.1492 O   0  0  0  0  0  0  0  0  0  0  0  0
    3.9384    2.0983   -1.1513 C   0  0  0  0  0  0  0  0  0  0  0  0
    4.1273    3.3236   -2.1662 C   0  0  0  0  0  0  0  0  0  0  0  0
    4.1182    4.5052   -1.8038 O   0  0  0  0  0  0  0  0  0  0  0  0
    4.5228    3.0690   -3.4897 N   0  0  0  0  0  0  0  0  0  0  0  0
    3.4979    2.5946   -4.3567 C   0  0  0  0  0  0  0  0  0  0  0  0
    3.4867    1.2558   -4.7201 C   0  0  0  0  0  0  0  0  0  0  0  0
    2.3691    0.6127   -5.1163 N   0  0  0  0  0  0  0  0  0  0  0  0
    1.2235    1.3392   -5.1186 C   0  0  0  0  0  0  0  0  0  0  0  0
    1.1498    2.7131   -4.8564 C   0  0  0  0  0  0  0  0  0  0  0  0
   -0.0622    3.4244   -4.7966 C   0  0  0  0  0  0  0  0  0  0  0  0
   -0.0704    4.8031   -4.5709 C   0  0  0  0  0  0  0  0  0  0  0  0
    1.1271    5.4951   -4.4460 C   0  0  0  0  0  0  0  0  0  0  0  0
    2.3265    4.7921   -4.4399 C   0  0  0  0  0  0  0  0  0  0  0  0
    2.3503    3.3852   -4.5769 C   0  0  0  0  0  0  0  0  0  0  0  0
    2.7090    1.2414   -1.4815 C   0  0  0  0  0  0  0  0  0  0  0  0
    2.9729   -0.2392   -1.7417 C   0  0  0  0  0  0  0  0  0  0  0  0
    4.1673   -0.7928   -1.1938 O   0  0  0  0  0  0  0  0  0  0  0  0
    5.2840   -0.0298   -1.3242 C   0  0  0  0  0  0  0  0  0  0  0  0
    6.5002   -0.6972   -1.4727 C   0  0  0  0  0  0  0  0  0  0  0  0
    7.7021    0.0155   -1.4609 C   0  0  0  0  0  0  0  0  0  0  0  0
    7.6860    1.3875   -1.2404 C   0  0  0  0  0  0  0  0  0  0  0  0
    9.1554    2.2756   -1.1796 Cl  0  0  0  0  0  0  0  0  0  0  0  0
    6.4745    2.0496   -1.0806 C   0  0  0  0  0  0  0  0  0  0  0  0
    5.2535    1.3487   -1.1770 C   0  0  0  0  0  0  0  0  0  0  0  0
  1  2  2  0
  2  3  1  0
  2  4  1  0
  4  5  1  0
  5  6  1  0
  6  7  1  0
  6 20  1  0
  6 29  1  0
  7  8  2  0
  7  9  1  0
  9 10  1  0
 10 11  2  0
 10 19  1  0
 11 12  1  0
 12 13  2  0
 13 14  1  0
 14 15  1  0
 14 19  2  0
 15 16  2  0
 16 17  1  0
 17 18  2  0
 18 19  1  0
 20 21  1  0
 21 22  1  0
 22 23  1  0
 23 24  2  0
 23 29  1  0
 24 25  1  0
 25 26  2  0
 26 27  1  0
 26 28  1  0
 28 29  2  0
M  END
$$$$
