
     RDKit          3D

 26 29  0  0  0  0  0  0  0  0999 V2000
    0.5149   -1.5734   -0.9259 N   0  0  0  0  0  0  0  0  0  0  0  0
    0.3956   -2.6641    0.0486 C   0  0  0  0  0  0  0  0  0  0  0  0
    0.8972   -2.4209    1.5238 C   0  0  0  0  0  0  0  0  0  0  0  0
    2.4146   -2.0993    1.5133 C   0  0  0  0  0  0  0  0  0  0  0  0
    3.0641   -2.0490    0.4612 O   0  0  0  0  0  0  0  0  0  0  0  0
    3.1482   -1.9488    2.6740 N   0  0  0  0  0  0  0  0  0  0  0  0
    2.7952   -0.9955    3.6692 C   0  0  0  0  0  0  0  0  0  0  0  0
    2.0460   -1.3834    4.7775 C   0  0  0  0  0  0  0  0  0  0  0  0
    1.7299   -0.5657    5.8056 N   0  0  0  0  0  0  0  0  0  0  0  0
    2.1854    0.7031    5.7247 C   0  0  0  0  0  0  0  0  0  0  0  0
    2.9604    1.2063    4.6780 C   0  0  0  0  0  0  0  0  0  0  0  0
    3.4053    2.5406    4.6703 C   0  0  0  0  0  0  0  0  0  0  0  0
    4.1758    3.0276    3.6168 C   0  0  0  0  0  0  0  0  0  0  0  0
    4.5061    2.1896    2.5595 C   0  0  0  0  0  0  0  0  0  0  0  0
    4.0684    0.8625    2.5556 C   0  0  0  0  0  0  0  0  0  0  0  0
    3.2892    0.3348    3.6157 C   0  0  0  0  0  0  0  0  0  0  0  0
    0.7497   -3.7751    2.2729 C   0  0  0  0  0  0  0  0  0  0  0  0
   -0.6968   -4.0576    2.6347 C   0  0  0  0  0  0  0  0  0  0  0  0
   -1.1984   -3.0019    3.4915 N   0  0  0  0  0  0  0  0  0  0  0  0
   -0.9913   -1.6824    3.0732 C   0  0  0  0  0  0  0  0  0  0  0  0
   -1.7206   -0.6640    3.7067 C   0  0  0  0  0  0  0  0  0  0  0  0
   -1.4923    0.6811    3.4146 C   0  0  0  0  0  0  0  0  0  0  0  0
   -0.5101    1.0226    2.4967 C   0  0  0  0  0  0  0  0  0  0  0  0
   -0.2018    2.6777    2.1448 Cl  0  0  0  0  0  0  0  0  0  0  0  0
    0.2459    0.0306    1.8754 C   0  0  0  0  0  0  0  0  0  0  0  0
    0.0349   -1.3327    2.1727 C   0  0  0  0  0  0  0  0  0  0  0  0
  1  2  1  0
  2  3  1  0
  3  4  1  0
  3 17  1  0
  3 26  1  0
  4  5  2  0
  4  6  1  0
  6  7  1  0
  7  8  2  0
  7 16  1  0
  8  9  1  0
  9 10  2  0
 10 11  1  0
 11 12  1  0
 11 16  2  0
 12 13  2  0
 13 14  1  0
 14 15  2  0
 15 16  1  0
 17 18  1  0
 18 19  1  0
 19 20  1  0
 20 21  2  0
 20 26  1  0
 21 22  1  0
 22 23  2  0
 23 24  1  0
 23 25  1  0
 25 26  2  0
M  END
$$$$
