
     RDKit          3D

 31 35  0  0  0  0  0  0  0  0999 V2000
    0.4320    0.2728    0.0824 O   0  0  0  0  0  0  0  0  0  0  0  0
    1.6366    0.2573    0.3194 C   0  0  0  0  0  0  0  0  0  0  0  0
    2.1335    0.9319    1.4118 N   0  0  0  0  0  0  0  0  0  0  0  0
    3.4876    0.8873    1.9359 C   0  0  0  0  0  0  0  0  0  0  0  0
    4.4073    2.1433    1.7557 C   0  0  0  0  0  0  0  0  0  0  0  0
    4.2814    2.8032    0.3539 C   0  0  0  0  0  0  0  0  0  0  0  0
    3.4762    2.4347   -0.4984 O   0  0  0  0  0  0  0  0  0  0  0  0
    5.0603    3.9519    0.1160 N   0  0  0  0  0  0  0  0  0  0  0  0
    5.9608    3.7806   -0.9942 C   0  0  0  0  0  0  0  0  0  0  0  0
    7.2568    3.3548   -0.7240 C   0  0  0  0  0  0  0  0  0  0  0  0
    8.0413    2.7205   -1.6135 N   0  0  0  0  0  0  0  0  0  0  0  0
    7.4969    2.5114   -2.8328 C   0  0  0  0  0  0  0  0  0  0  0  0
    6.2580    3.0082   -3.2524 C   0  0  0  0  0  0  0  0  0  0  0  0
    5.7533    2.7595   -4.5398 C   0  0  0  0  0  0  0  0  0  0  0  0
    4.5387    3.3099   -4.9480 C   0  0  0  0  0  0  0  0  0  0  0  0
    3.8227    4.1276   -4.0832 C   0  0  0  0  0  0  0  0  0  0  0  0
    4.2849    4.3337   -2.7837 C   0  0  0  0  0  0  0  0  0  0  0  0
    5.4917    3.7445   -2.3290 C   0  0  0  0  0  0  0  0  0  0  0  0
    5.8705    1.6452    1.9108 C   0  0  0  0  0  0  0  0  0  0  0  0
    6.1927    1.3193    3.3554 C   0  0  0  0  0  0  0  0  0  0  0  0
    6.0592    2.5149    4.1652 N   0  0  0  0  0  0  0  0  0  0  0  0
    5.0454    3.4249    3.8661 C   0  0  0  0  0  0  0  0  0  0  0  0
    4.8961    4.5500    4.6869 C   0  0  0  0  0  0  0  0  0  0  0  0
    3.8471    5.4497    4.4927 C   0  0  0  0  0  0  0  0  0  0  0  0
    2.9034    5.2005    3.5040 C   0  0  0  0  0  0  0  0  0  0  0  0
    1.6067    6.3032    3.2600 Cl  0  0  0  0  0  0  0  0  0  0  0  0
    3.0238    4.0826    2.6820 C   0  0  0  0  0  0  0  0  0  0  0  0
    4.1226    3.2112    2.8240 C   0  0  0  0  0  0  0  0  0  0  0  0
    2.5786   -0.5261   -0.5348 C   0  0  0  0  0  0  0  0  0  0  0  0
    2.5867   -2.0366   -0.4664 C   0  0  0  0  0  0  0  0  0  0  0  0
    2.0697   -1.3525   -1.6964 C   0  0  0  0  0  0  0  0  0  0  0  0
  1  2  2  0
  2  3  1  0
  2 29  1  0
  3  4  1  0
  4  5  1  0
  5  6  1  0
  5 19  1  0
  5 28  1  0
  6  7  2  0
  6  8  1  0
  8  9  1  0
  9 10  2  0
  9 18  1  0
 10 11  1  0
 11 12  2  0
 12 13  1  0
 13 14  1  0
 13 18  2  0
 14 15  2  0
 15 16  1  0
 16 17  2  0
 17 18  1  0
 19 20  1  0
 20 21  1  0
 21 22  1  0
 22 23  2  0
 22 28  1  0
 23 24  1  0
 24 25  2  0
 25 26  1  0
 25 27  1  0
 27 28  2  0
 29 30  1  0
 29 31  1  0
 30 31  1  0
M  END
$$$$
