
     RDKit          3D

 26 29  0  0  0  0  0  0  0  0999 V2000
    2.0842   -0.5343    1.0740 C   0  0  0  0  0  0  0  0  0  0  0  0
    1.1677   -1.5293    0.5565 N   0  0  0  0  0  0  0  0  0  0  0  0
   -0.0809   -1.0477   -0.1161 C   0  0  0  0  0  0  0  0  0  0  0  0
   -0.6607   -2.3415   -0.8331 C   0  0  0  0  0  0  0  0  0  0  0  0
    0.0960   -3.2598   -1.1866 O   0  0  0  0  0  0  0  0  0  0  0  0
   -1.9975   -2.5218   -1.1165 N   0  0  0  0  0  0  0  0  0  0  0  0
   -2.7488   -1.5564   -1.8354 C   0  0  0  0  0  0  0  0  0  0  0  0
   -3.6691   -0.7633   -1.1560 C   0  0  0  0  0  0  0  0  0  0  0  0
   -4.4837    0.1328   -1.7527 N   0  0  0  0  0  0  0  0  0  0  0  0
   -4.3930    0.2243   -3.0980 C   0  0  0  0  0  0  0  0  0  0  0  0
   -3.5410   -0.5465   -3.8947 C   0  0  0  0  0  0  0  0  0  0  0  0
   -3.5213   -0.4160   -5.2964 C   0  0  0  0  0  0  0  0  0  0  0  0
   -2.6731   -1.2033   -6.0743 C   0  0  0  0  0  0  0  0  0  0  0  0
   -1.8336   -2.1259   -5.4622 C   0  0  0  0  0  0  0  0  0  0  0  0
   -1.8412   -2.2615   -4.0709 C   0  0  0  0  0  0  0  0  0  0  0  0
   -2.6944   -1.4779   -3.2523 C   0  0  0  0  0  0  0  0  0  0  0  0
    0.2008   -0.0031   -1.2157 C   0  0  0  0  0  0  0  0  0  0  0  0
    0.1186    1.4169   -0.6866 C   0  0  0  0  0  0  0  0  0  0  0  0
   -1.1509    1.6893   -0.0980 O   0  0  0  0  0  0  0  0  0  0  0  0
   -1.4935    0.8117    0.8929 C   0  0  0  0  0  0  0  0  0  0  0  0
   -2.3963    1.2918    1.8449 C   0  0  0  0  0  0  0  0  0  0  0  0
   -2.8173    0.4704    2.8908 C   0  0  0  0  0  0  0  0  0  0  0  0
   -2.3375   -0.8332    2.9763 C   0  0  0  0  0  0  0  0  0  0  0  0
   -2.8486   -1.8497    4.2666 Cl  0  0  0  0  0  0  0  0  0  0  0  0
   -1.4531   -1.3239    2.0159 C   0  0  0  0  0  0  0  0  0  0  0  0
   -1.0304   -0.5091    0.9458 C   0  0  0  0  0  0  0  0  0  0  0  0
  1  2  1  0
  2  3  1  0
  3  4  1  0
  3 17  1  0
  3 26  1  0
  4  5  2  0
  4  6  1  0
  6  7  1  0
  7  8  2  0
  7 16  1  0
  8  9  1  0
  9 10  2  0
 10 11  1  0
 11 12  1  0
 11 16  2  0
 12 13  2  0
 13 14  1  0
 14 15  2  0
 15 16  1  0
 17 18  1  0
 18 19  1  0
 19 20  1  0
 20 21  2  0
 20 26  1  0
 21 22  1  0
 22 23  2  0
 23 24  1  0
 23 25  1  0
 25 26  2  0
M  END
$$$$
