
     RDKit          3D

 32 35  0  0  0  0  0  0  0  0999 V2000
    1.2520    0.8547   -0.3002 C   0  0  0  0  0  0  0  0  0  0  0  0
    0.7916    2.4081    0.4410 S   0  0  0  0  0  0  0  0  0  0  0  0
    1.2547    3.4428   -0.4723 O   0  0  0  0  0  0  0  0  0  0  0  0
   -0.6096    2.3627    0.8102 O   0  0  0  0  0  0  0  0  0  0  0  0
    1.7960    2.5445    1.9142 C   0  0  0  0  0  0  0  0  0  0  0  0
    1.2198    1.8784    3.1596 C   0  0  0  0  0  0  0  0  0  0  0  0
    1.5322    0.4484    3.2195 N   0  0  0  0  0  0  0  0  0  0  0  0
    0.9443   -0.2579    4.3797 C   0  0  0  0  0  0  0  0  0  0  0  0
   -0.6334   -0.4107    4.5051 C   0  0  0  0  0  0  0  0  0  0  0  0
   -1.3119   -0.2113    3.1207 C   0  0  0  0  0  0  0  0  0  0  0  0
   -0.6788   -0.2982    2.0643 O   0  0  0  0  0  0  0  0  0  0  0  0
   -2.6827    0.0150    3.0574 N   0  0  0  0  0  0  0  0  0  0  0  0
   -3.4393   -1.1876    2.8396 C   0  0  0  0  0  0  0  0  0  0  0  0
   -4.0523   -1.8013    3.9274 C   0  0  0  0  0  0  0  0  0  0  0  0
   -4.5684   -3.0467    3.8926 N   0  0  0  0  0  0  0  0  0  0  0  0
   -4.4326   -3.7175    2.7252 C   0  0  0  0  0  0  0  0  0  0  0  0
   -3.8792   -3.1877    1.5548 C   0  0  0  0  0  0  0  0  0  0  0  0
   -3.7420   -3.9537    0.3818 C   0  0  0  0  0  0  0  0  0  0  0  0
   -3.2056   -3.3966   -0.7790 C   0  0  0  0  0  0  0  0  0  0  0  0
   -2.8228   -2.0631   -0.7906 C   0  0  0  0  0  0  0  0  0  0  0  0
   -2.9295   -1.3030    0.3739 C   0  0  0  0  0  0  0  0  0  0  0  0
   -3.4231   -1.8554    1.5850 C   0  0  0  0  0  0  0  0  0  0  0  0
   -1.1702    0.6485    5.4968 C   0  0  0  0  0  0  0  0  0  0  0  0
   -0.9196    0.2089    6.9304 C   0  0  0  0  0  0  0  0  0  0  0  0
   -1.6308   -0.9892    7.2318 O   0  0  0  0  0  0  0  0  0  0  0  0
   -1.4153   -2.0063    6.3440 C   0  0  0  0  0  0  0  0  0  0  0  0
   -1.7638   -3.2817    6.7970 C   0  0  0  0  0  0  0  0  0  0  0  0
   -1.6092   -4.3924    5.9679 C   0  0  0  0  0  0  0  0  0  0  0  0
   -1.1028   -4.2233    4.6843 C   0  0  0  0  0  0  0  0  0  0  0  0
   -0.9239   -5.5840    3.6465 Cl  0  0  0  0  0  0  0  0  0  0  0  0
   -0.7574   -2.9518    4.2239 C   0  0  0  0  0  0  0  0  0  0  0  0
   -0.9326   -1.8157    5.0428 C   0  0  0  0  0  0  0  0  0  0  0  0
  1  2  1  0
  2  3  2  0
  2  4  2  0
  2  5  1  0
  5  6  1  0
  6  7  1  0
  7  8  1  0
  8  9  1  0
  9 10  1  0
  9 23  1  0
  9 32  1  0
 10 11  2  0
 10 12  1  0
 12 13  1  0
 13 14  2  0
 13 22  1  0
 14 15  1  0
 15 16  2  0
 16 17  1  0
 17 18  1  0
 17 22  2  0
 18 19  2  0
 19 20  1  0
 20 21  2  0
 21 22  1  0
 23 24  1  0
 24 25  1  0
 25 26  1  0
 26 27  2  0
 26 32  1  0
 27 28  1  0
 28 29  2  0
 29 30  1  0
 29 31  1  0
 31 32  2  0
M  END
$$$$
