
     RDKit          3D

 31 34  0  0  0  0  0  0  0  0999 V2000
    2.6444   -0.3975    0.5175 C   0  0  0  0  0  0  0  0  0  0  0  0
    1.5959   -0.8747   -0.3484 N   0  0  0  0  0  0  0  0  0  0  0  0
    0.5740   -1.7256   -0.0521 C   0  0  0  0  0  0  0  0  0  0  0  0
   -0.3096   -1.9030   -0.8918 O   0  0  0  0  0  0  0  0  0  0  0  0
    0.5062   -2.3849    1.3340 C   0  0  0  0  0  0  0  0  0  0  0  0
    1.5960   -3.1453    1.8325 O   0  0  0  0  0  0  0  0  0  0  0  0
    1.9491   -4.3128    1.0765 C   0  0  0  0  0  0  0  0  0  0  0  0
    0.9578   -5.5223    1.1778 C   0  0  0  0  0  0  0  0  0  0  0  0
   -0.0533   -5.3883    0.0051 C   0  0  0  0  0  0  0  0  0  0  0  0
    0.3097   -5.0086   -1.1121 O   0  0  0  0  0  0  0  0  0  0  0  0
   -1.3056   -5.9698    0.1310 N   0  0  0  0  0  0  0  0  0  0  0  0
   -2.4015   -5.0464    0.2712 C   0  0  0  0  0  0  0  0  0  0  0  0
   -2.9490   -4.8428    1.5359 C   0  0  0  0  0  0  0  0  0  0  0  0
   -3.9694   -4.0013    1.8013 N   0  0  0  0  0  0  0  0  0  0  0  0
   -4.4852   -3.3398    0.7420 C   0  0  0  0  0  0  0  0  0  0  0  0
   -4.0497   -3.4797   -0.5775 C   0  0  0  0  0  0  0  0  0  0  0  0
   -4.6467   -2.7513   -1.6231 C   0  0  0  0  0  0  0  0  0  0  0  0
   -4.2017   -2.8919   -2.9354 C   0  0  0  0  0  0  0  0  0  0  0  0
   -3.1624   -3.7662   -3.2176 C   0  0  0  0  0  0  0  0  0  0  0  0
   -2.5649   -4.4962   -2.1871 C   0  0  0  0  0  0  0  0  0  0  0  0
   -2.9827   -4.3692   -0.8373 C   0  0  0  0  0  0  0  0  0  0  0  0
    0.2797   -5.5891    2.5620 C   0  0  0  0  0  0  0  0  0  0  0  0
    1.2270   -6.1909    3.5816 C   0  0  0  0  0  0  0  0  0  0  0  0
    1.4429   -7.5690    3.2753 O   0  0  0  0  0  0  0  0  0  0  0  0
    1.8679   -7.7820    1.9920 C   0  0  0  0  0  0  0  0  0  0  0  0
    2.4343   -9.0374    1.7544 C   0  0  0  0  0  0  0  0  0  0  0  0
    2.9496   -9.3505    0.4983 C   0  0  0  0  0  0  0  0  0  0  0  0
    2.9123   -8.3963   -0.5115 C   0  0  0  0  0  0  0  0  0  0  0  0
    3.5759   -8.7607   -2.0564 Cl  0  0  0  0  0  0  0  0  0  0  0  0
    2.3225   -7.1506   -0.2868 C   0  0  0  0  0  0  0  0  0  0  0  0
    1.7438   -6.8385    0.9609 C   0  0  0  0  0  0  0  0  0  0  0  0
  1  2  1  0
  2  3  1  0
  3  4  2  0
  3  5  1  0
  5  6  1  0
  6  7  1  0
  7  8  1  0
  8  9  1  0
  8 22  1  0
  8 31  1  0
  9 10  2  0
  9 11  1  0
 11 12  1  0
 12 13  2  0
 12 21  1  0
 13 14  1  0
 14 15  2  0
 15 16  1  0
 16 17  1  0
 16 21  2  0
 17 18  2  0
 18 19  1  0
 19 20  2  0
 20 21  1  0
 22 23  1  0
 23 24  1  0
 24 25  1  0
 25 26  2  0
 25 31  1  0
 26 27  1  0
 27 28  2  0
 28 29  1  0
 28 30  1  0
 30 31  2  0
M  END
$$$$
