
     RDKit          3D

 26 29  0  0  0  0  0  0  0  0999 V2000
    1.3553    0.5111    1.3418 N   0  0  0  0  0  0  0  0  0  0  0  0
    1.7736    1.0724    0.0522 C   0  0  0  0  0  0  0  0  0  0  0  0
    1.7854    0.1166   -1.2047 C   0  0  0  0  0  0  0  0  0  0  0  0
    2.3419    0.9750   -2.3848 C   0  0  0  0  0  0  0  0  0  0  0  0
    2.4786    2.2010   -2.2813 O   0  0  0  0  0  0  0  0  0  0  0  0
    2.7538    0.4452   -3.5870 N   0  0  0  0  0  0  0  0  0  0  0  0
    1.9811   -0.4640   -4.3478 C   0  0  0  0  0  0  0  0  0  0  0  0
    2.2267   -1.8302   -4.2569 C   0  0  0  0  0  0  0  0  0  0  0  0
    1.5868   -2.7644   -4.9924 N   0  0  0  0  0  0  0  0  0  0  0  0
    0.6759   -2.3110   -5.8816 C   0  0  0  0  0  0  0  0  0  0  0  0
    0.3689   -0.9646   -6.0910 C   0  0  0  0  0  0  0  0  0  0  0  0
   -0.5780   -0.5642   -7.0516 C   0  0  0  0  0  0  0  0  0  0  0  0
   -0.8673    0.7850   -7.2464 C   0  0  0  0  0  0  0  0  0  0  0  0
   -0.2202    1.7468   -6.4807 C   0  0  0  0  0  0  0  0  0  0  0  0
    0.7195    1.3609   -5.5213 C   0  0  0  0  0  0  0  0  0  0  0  0
    1.0427   -0.0021   -5.3070 C   0  0  0  0  0  0  0  0  0  0  0  0
    0.3415   -0.3386   -1.5080 C   0  0  0  0  0  0  0  0  0  0  0  0
   -0.0299   -1.6138   -0.7711 C   0  0  0  0  0  0  0  0  0  0  0  0
    0.8699   -2.6806   -1.0507 O   0  0  0  0  0  0  0  0  0  0  0  0
    2.1842   -2.3744   -0.8422 C   0  0  0  0  0  0  0  0  0  0  0  0
    3.0255   -3.4657   -0.6100 C   0  0  0  0  0  0  0  0  0  0  0  0
    4.3916   -3.2726   -0.4108 C   0  0  0  0  0  0  0  0  0  0  0  0
    4.9139   -1.9850   -0.4559 C   0  0  0  0  0  0  0  0  0  0  0  0
    6.5983   -1.7360   -0.2125 Cl  0  0  0  0  0  0  0  0  0  0  0  0
    4.0811   -0.8929   -0.7057 C   0  0  0  0  0  0  0  0  0  0  0  0
    2.6986   -1.0742   -0.9142 C   0  0  0  0  0  0  0  0  0  0  0  0
  1  2  1  0
  2  3  1  0
  3  4  1  0
  3 17  1  0
  3 26  1  0
  4  5  2  0
  4  6  1  0
  6  7  1  0
  7  8  2  0
  7 16  1  0
  8  9  1  0
  9 10  2  0
 10 11  1  0
 11 12  1  0
 11 16  2  0
 12 13  2  0
 13 14  1  0
 14 15  2  0
 15 16  1  0
 17 18  1  0
 18 19  1  0
 19 20  1  0
 20 21  2  0
 20 26  1  0
 21 22  1  0
 22 23  2  0
 23 24  1  0
 23 25  1  0
 25 26  2  0
M  END
$$$$
