
     RDKit          3D

 29 32  0  0  0  0  0  0  0  0999 V2000
   -0.5970   -2.2051    0.0444 C   0  0  0  0  0  0  0  0  0  0  0  0
   -0.4975   -1.3599    1.3160 C   0  0  0  0  0  0  0  0  0  0  0  0
    0.9474   -0.8992    1.5004 C   0  0  0  0  0  0  0  0  0  0  0  0
   -1.4146   -0.2332    1.1635 N   0  0  0  0  0  0  0  0  0  0  0  0
   -2.2966    0.0552    2.2984 C   0  0  0  0  0  0  0  0  0  0  0  0
   -1.8830    1.0897    3.4193 C   0  0  0  0  0  0  0  0  0  0  0  0
   -0.8583    0.4385    4.3818 C   0  0  0  0  0  0  0  0  0  0  0  0
   -0.6883   -0.7855    4.4282 O   0  0  0  0  0  0  0  0  0  0  0  0
   -0.3081    1.1524    5.4323 N   0  0  0  0  0  0  0  0  0  0  0  0
    0.7165    2.1079    5.1847 C   0  0  0  0  0  0  0  0  0  0  0  0
    0.4095    3.4637    5.2492 C   0  0  0  0  0  0  0  0  0  0  0  0
    1.3114    4.4524    5.0757 N   0  0  0  0  0  0  0  0  0  0  0  0
    2.5866    4.0676    4.8461 C   0  0  0  0  0  0  0  0  0  0  0  0
    3.0260    2.7419    4.8034 C   0  0  0  0  0  0  0  0  0  0  0  0
    4.3795    2.4192    4.5911 C   0  0  0  0  0  0  0  0  0  0  0  0
    4.8021    1.0920    4.5683 C   0  0  0  0  0  0  0  0  0  0  0  0
    3.8774    0.0740    4.7517 C   0  0  0  0  0  0  0  0  0  0  0  0
    2.5312    0.3803    4.9569 C   0  0  0  0  0  0  0  0  0  0  0  0
    2.0701    1.7213    4.9886 C   0  0  0  0  0  0  0  0  0  0  0  0
   -3.1257    1.3124    4.3334 C   0  0  0  0  0  0  0  0  0  0  0  0
   -4.1506    2.2104    3.6738 C   0  0  0  0  0  0  0  0  0  0  0  0
   -3.6160    3.5055    3.4222 O   0  0  0  0  0  0  0  0  0  0  0  0
   -2.3885    3.5187    2.8217 C   0  0  0  0  0  0  0  0  0  0  0  0
   -2.0389    4.7498    2.2559 C   0  0  0  0  0  0  0  0  0  0  0  0
   -0.8086    4.9161    1.6258 C   0  0  0  0  0  0  0  0  0  0  0  0
    0.0750    3.8455    1.5727 C   0  0  0  0  0  0  0  0  0  0  0  0
    1.6040    4.0330    0.8079 Cl  0  0  0  0  0  0  0  0  0  0  0  0
   -0.2644    2.6161    2.1450 C   0  0  0  0  0  0  0  0  0  0  0  0
   -1.5012    2.4295    2.7929 C   0  0  0  0  0  0  0  0  0  0  0  0
  1  2  1  0
  2  3  1  0
  2  4  1  0
  4  5  1  0
  5  6  1  0
  6  7  1  0
  6 20  1  0
  6 29  1  0
  7  8  2  0
  7  9  1  0
  9 10  1  0
 10 11  2  0
 10 19  1  0
 11 12  1  0
 12 13  2  0
 13 14  1  0
 14 15  1  0
 14 19  2  0
 15 16  2  0
 16 17  1  0
 17 18  2  0
 18 19  1  0
 20 21  1  0
 21 22  1  0
 22 23  1  0
 23 24  2  0
 23 29  1  0
 24 25  1  0
 25 26  2  0
 26 27  1  0
 26 28  1  0
 28 29  2  0
M  END
$$$$
