
     RDKit          3D

 31 35  0  0  0  0  0  0  0  0999 V2000
    0.6743   -0.3715   -0.6995 O   0  0  0  0  0  0  0  0  0  0  0  0
    1.8808   -0.4232   -0.4723 C   0  0  0  0  0  0  0  0  0  0  0  0
    2.3142   -1.1670    0.5872 N   0  0  0  0  0  0  0  0  0  0  0  0
    3.6416   -1.3590    1.1606 C   0  0  0  0  0  0  0  0  0  0  0  0
    3.9600   -0.4878    2.4296 C   0  0  0  0  0  0  0  0  0  0  0  0
    5.1931   -1.1392    3.1260 C   0  0  0  0  0  0  0  0  0  0  0  0
    5.5827   -2.2753    2.8353 O   0  0  0  0  0  0  0  0  0  0  0  0
    5.7638   -0.5498    4.2483 N   0  0  0  0  0  0  0  0  0  0  0  0
    6.6094    0.5769    4.0243 C   0  0  0  0  0  0  0  0  0  0  0  0
    6.1649    1.8430    4.3906 C   0  0  0  0  0  0  0  0  0  0  0  0
    6.8086    2.9842    4.0689 N   0  0  0  0  0  0  0  0  0  0  0  0
    7.9341    2.8506    3.3299 C   0  0  0  0  0  0  0  0  0  0  0  0
    8.5058    1.6300    2.9573 C   0  0  0  0  0  0  0  0  0  0  0  0
    9.6772    1.5609    2.1812 C   0  0  0  0  0  0  0  0  0  0  0  0
   10.2538    0.3308    1.8667 C   0  0  0  0  0  0  0  0  0  0  0  0
    9.6755   -0.8420    2.3327 C   0  0  0  0  0  0  0  0  0  0  0  0
    8.4890   -0.7870    3.0647 C   0  0  0  0  0  0  0  0  0  0  0  0
    7.8597    0.4466    3.3677 C   0  0  0  0  0  0  0  0  0  0  0  0
    2.8125   -0.6062    3.4670 C   0  0  0  0  0  0  0  0  0  0  0  0
    1.7492    0.4565    3.2705 C   0  0  0  0  0  0  0  0  0  0  0  0
    2.3120    1.7593    3.3811 O   0  0  0  0  0  0  0  0  0  0  0  0
    3.3280    1.9801    2.4925 C   0  0  0  0  0  0  0  0  0  0  0  0
    3.5257    3.3162    2.1355 C   0  0  0  0  0  0  0  0  0  0  0  0
    4.5472    3.6634    1.2552 C   0  0  0  0  0  0  0  0  0  0  0  0
    5.3773    2.6697    0.7483 C   0  0  0  0  0  0  0  0  0  0  0  0
    6.6438    3.0887   -0.3393 Cl  0  0  0  0  0  0  0  0  0  0  0  0
    5.1933    1.3324    1.1142 C   0  0  0  0  0  0  0  0  0  0  0  0
    4.1652    0.9644    2.0054 C   0  0  0  0  0  0  0  0  0  0  0  0
    2.8511    0.3105   -1.3263 C   0  0  0  0  0  0  0  0  0  0  0  0
    2.3859    0.8730   -2.6562 C   0  0  0  0  0  0  0  0  0  0  0  0
    2.7032    1.8025   -1.5253 C   0  0  0  0  0  0  0  0  0  0  0  0
  1  2  2  0
  2  3  1  0
  2 29  1  0
  3  4  1  0
  4  5  1  0
  5  6  1  0
  5 19  1  0
  5 28  1  0
  6  7  2  0
  6  8  1  0
  8  9  1  0
  9 10  2  0
  9 18  1  0
 10 11  1  0
 11 12  2  0
 12 13  1  0
 13 14  1  0
 13 18  2  0
 14 15  2  0
 15 16  1  0
 16 17  2  0
 17 18  1  0
 19 20  1  0
 20 21  1  0
 21 22  1  0
 22 23  2  0
 22 28  1  0
 23 24  1  0
 24 25  2  0
 25 26  1  0
 25 27  1  0
 27 28  2  0
 29 30  1  0
 29 31  1  0
 30 31  1  0
M  END
$$$$
