
     RDKit          3D

 26 29  0  0  0  0  0  0  0  0999 V2000
    1.5095   -0.2130    0.6261 O   0  0  0  0  0  0  0  0  0  0  0  0
    2.5441   -0.2623   -0.0450 C   0  0  0  0  0  0  0  0  0  0  0  0
    3.2019    0.9268   -0.2652 N   0  0  0  0  0  0  0  0  0  0  0  0
    4.5155    1.1705    0.2165 C   0  0  0  0  0  0  0  0  0  0  0  0
    4.9320    0.7171    1.4687 C   0  0  0  0  0  0  0  0  0  0  0  0
    6.1610    0.9394    1.9803 N   0  0  0  0  0  0  0  0  0  0  0  0
    7.0142    1.6506    1.2082 C   0  0  0  0  0  0  0  0  0  0  0  0
    6.7030    2.1759   -0.0492 C   0  0  0  0  0  0  0  0  0  0  0  0
    7.6374    2.9066   -0.8048 C   0  0  0  0  0  0  0  0  0  0  0  0
    7.2966    3.4139   -2.0582 C   0  0  0  0  0  0  0  0  0  0  0  0
    6.0210    3.2007   -2.5688 C   0  0  0  0  0  0  0  0  0  0  0  0
    5.0857    2.4752   -1.8283 C   0  0  0  0  0  0  0  0  0  0  0  0
    5.4070    1.9453   -0.5577 C   0  0  0  0  0  0  0  0  0  0  0  0
    3.0239   -1.5574   -0.7726 C   0  0  0  0  0  0  0  0  0  0  0  0
    3.0092   -1.2750   -2.3008 C   0  0  0  0  0  0  0  0  0  0  0  0
    1.6983   -1.0586   -2.8198 O   0  0  0  0  0  0  0  0  0  0  0  0
    2.0050   -2.6857   -0.4754 C   0  0  0  0  0  0  0  0  0  0  0  0
    2.1213   -3.1458    0.9698 C   0  0  0  0  0  0  0  0  0  0  0  0
    3.4090   -3.6622    1.2853 O   0  0  0  0  0  0  0  0  0  0  0  0
    4.4774   -3.0352    0.7108 C   0  0  0  0  0  0  0  0  0  0  0  0
    5.7201   -3.4913    1.1663 C   0  0  0  0  0  0  0  0  0  0  0  0
    6.9016   -2.9972    0.6202 C   0  0  0  0  0  0  0  0  0  0  0  0
    6.8349   -2.0614   -0.4021 C   0  0  0  0  0  0  0  0  0  0  0  0
    8.2839   -1.4467   -1.0978 Cl  0  0  0  0  0  0  0  0  0  0  0  0
    5.5972   -1.6105   -0.8692 C   0  0  0  0  0  0  0  0  0  0  0  0
    4.3891   -2.0652   -0.2995 C   0  0  0  0  0  0  0  0  0  0  0  0
  1  2  2  0
  2  3  1  0
  2 14  1  0
  3  4  1  0
  4  5  2  0
  4 13  1  0
  5  6  1  0
  6  7  2  0
  7  8  1  0
  8  9  1  0
  8 13  2  0
  9 10  2  0
 10 11  1  0
 11 12  2  0
 12 13  1  0
 14 15  1  0
 14 17  1  0
 14 26  1  0
 15 16  1  0
 17 18  1  0
 18 19  1  0
 19 20  1  0
 20 21  2  0
 20 26  1  0
 21 22  1  0
 22 23  2  0
 23 24  1  0
 23 25  1  0
 25 26  2  0
M  END
$$$$
