
     RDKit          3D

 33 37  0  0  0  0  0  0  0  0999 V2000
   -2.2752    0.1908    0.0442 C   0  0  0  0  0  0  0  0  0  0  0  0
   -0.9308    0.5682    0.4055 N   0  0  0  0  0  0  0  0  0  0  0  0
    0.0216   -0.2253    0.9714 C   0  0  0  0  0  0  0  0  0  0  0  0
    1.1329    0.5693    1.1220 C   0  0  0  0  0  0  0  0  0  0  0  0
    0.7527    1.8377    0.6156 C   0  0  0  0  0  0  0  0  0  0  0  0
    1.6100    3.0691    0.5076 C   0  0  0  0  0  0  0  0  0  0  0  0
    2.0776    3.2076   -0.8696 N   0  0  0  0  0  0  0  0  0  0  0  0
    3.4115    3.7823   -1.0510 C   0  0  0  0  0  0  0  0  0  0  0  0
    4.7167    2.9318   -0.7461 C   0  0  0  0  0  0  0  0  0  0  0  0
    5.8838    3.7808   -1.3748 C   0  0  0  0  0  0  0  0  0  0  0  0
    5.8358    5.0169   -1.4115 O   0  0  0  0  0  0  0  0  0  0  0  0
    7.0964    3.2164   -1.6794 N   0  0  0  0  0  0  0  0  0  0  0  0
    7.3275    2.3306   -2.7688 C   0  0  0  0  0  0  0  0  0  0  0  0
    8.2950    1.3466   -2.5581 C   0  0  0  0  0  0  0  0  0  0  0  0
    8.6242    0.3927   -3.4505 N   0  0  0  0  0  0  0  0  0  0  0  0
    7.9804    0.4403   -4.6355 C   0  0  0  0  0  0  0  0  0  0  0  0
    7.0411    1.4098   -4.9933 C   0  0  0  0  0  0  0  0  0  0  0  0
    6.4512    1.4027   -6.2699 C   0  0  0  0  0  0  0  0  0  0  0  0
    5.5503    2.3959   -6.6433 C   0  0  0  0  0  0  0  0  0  0  0  0
    5.2403    3.4118   -5.7501 C   0  0  0  0  0  0  0  0  0  0  0  0
    5.8156    3.4245   -4.4755 C   0  0  0  0  0  0  0  0  0  0  0  0
    6.7114    2.4111   -4.0475 C   0  0  0  0  0  0  0  0  0  0  0  0
    4.5549    1.5210   -1.3558 C   0  0  0  0  0  0  0  0  0  0  0  0
    5.3998    0.4899   -0.6292 C   0  0  0  0  0  0  0  0  0  0  0  0
    4.9904    0.3874    0.7336 O   0  0  0  0  0  0  0  0  0  0  0  0
    5.0933    1.5790    1.3972 C   0  0  0  0  0  0  0  0  0  0  0  0
    5.2826    1.4804    2.7782 C   0  0  0  0  0  0  0  0  0  0  0  0
    5.4141    2.6308    3.5526 C   0  0  0  0  0  0  0  0  0  0  0  0
    5.3451    3.8772    2.9408 C   0  0  0  0  0  0  0  0  0  0  0  0
    5.5188    5.3031    3.8875 Cl  0  0  0  0  0  0  0  0  0  0  0  0
    5.1308    3.9798    1.5643 C   0  0  0  0  0  0  0  0  0  0  0  0
    4.9851    2.8263    0.7653 C   0  0  0  0  0  0  0  0  0  0  0  0
   -0.5142    1.8245    0.1734 N   0  0  0  0  0  0  0  0  0  0  0  0
  1  2  1  0
  2  3  1  0
  2 33  1  0
  3  4  2  0
  4  5  1  0
  5  6  1  0
  5 33  2  0
  6  7  1  0
  7  8  1  0
  8  9  1  0
  9 10  1  0
  9 23  1  0
  9 32  1  0
 10 11  2  0
 10 12  1  0
 12 13  1  0
 13 14  2  0
 13 22  1  0
 14 15  1  0
 15 16  2  0
 16 17  1  0
 17 18  1  0
 17 22  2  0
 18 19  2  0
 19 20  1  0
 20 21  2  0
 21 22  1  0
 23 24  1  0
 24 25  1  0
 25 26  1  0
 26 27  2  0
 26 32  1  0
 27 28  1  0
 28 29  2  0
 29 30  1  0
 29 31  1  0
 31 32  2  0
M  END
$$$$
