
     RDKit          3D

 30 34  0  0  0  0  0  0  0  0999 V2000
    1.7156    0.5515    1.0865 O   0  0  0  0  0  0  0  0  0  0  0  0
    2.6721    0.2021    0.3883 C   0  0  0  0  0  0  0  0  0  0  0  0
    3.4381    1.2052   -0.1612 N   0  0  0  0  0  0  0  0  0  0  0  0
    4.8087    1.3874    0.1679 C   0  0  0  0  0  0  0  0  0  0  0  0
    5.2869    1.1740    1.4614 C   0  0  0  0  0  0  0  0  0  0  0  0
    6.5702    1.3665    1.8326 N   0  0  0  0  0  0  0  0  0  0  0  0
    7.4169    1.7951    0.8689 C   0  0  0  0  0  0  0  0  0  0  0  0
    7.0503    2.0650   -0.4524 C   0  0  0  0  0  0  0  0  0  0  0  0
    7.9810    2.5105   -1.4082 C   0  0  0  0  0  0  0  0  0  0  0  0
    7.5847    2.7665   -2.7203 C   0  0  0  0  0  0  0  0  0  0  0  0
    6.2576    2.5824   -3.0917 C   0  0  0  0  0  0  0  0  0  0  0  0
    5.3249    2.1395   -2.1515 C   0  0  0  0  0  0  0  0  0  0  0  0
    5.7004    1.8704   -0.8153 C   0  0  0  0  0  0  0  0  0  0  0  0
    2.9110   -1.2811   -0.0445 C   0  0  0  0  0  0  0  0  0  0  0  0
    2.7829   -1.3830   -1.6121 C   0  0  0  0  0  0  0  0  0  0  0  0
    1.5295   -1.2397   -2.3519 N   0  0  0  0  0  0  0  0  0  0  0  0
    0.6389   -0.1385   -2.0324 C   0  0  0  0  0  0  0  0  0  0  0  0
   -0.5941   -0.4272   -2.8833 C   0  0  0  0  0  0  0  0  0  0  0  0
   -0.4636   -1.8863   -3.3108 C   0  0  0  0  0  0  0  0  0  0  0  0
    0.7078   -2.4286   -2.5078 C   0  0  0  0  0  0  0  0  0  0  0  0
    1.8488   -2.1795    0.6297 C   0  0  0  0  0  0  0  0  0  0  0  0
    2.0791   -2.2631    2.1312 C   0  0  0  0  0  0  0  0  0  0  0  0
    3.3409   -2.8234    2.4696 O   0  0  0  0  0  0  0  0  0  0  0  0
    4.3875   -2.5032    1.6540 C   0  0  0  0  0  0  0  0  0  0  0  0
    5.6254   -2.9768    2.1062 C   0  0  0  0  0  0  0  0  0  0  0  0
    6.7788   -2.7854    1.3509 C   0  0  0  0  0  0  0  0  0  0  0  0
    6.6861   -2.1360    0.1287 C   0  0  0  0  0  0  0  0  0  0  0  0
    8.0995   -1.8936   -0.8226 Cl  0  0  0  0  0  0  0  0  0  0  0  0
    5.4519   -1.6705   -0.3335 C   0  0  0  0  0  0  0  0  0  0  0  0
    4.2752   -1.8192    0.4332 C   0  0  0  0  0  0  0  0  0  0  0  0
  1  2  2  0
  2  3  1  0
  2 14  1  0
  3  4  1  0
  4  5  2  0
  4 13  1  0
  5  6  1  0
  6  7  2  0
  7  8  1  0
  8  9  1  0
  8 13  2  0
  9 10  2  0
 10 11  1  0
 11 12  2  0
 12 13  1  0
 14 15  1  0
 14 21  1  0
 14 30  1  0
 15 16  1  0
 16 17  1  0
 16 20  1  0
 17 18  1  0
 18 19  1  0
 19 20  1  0
 21 22  1  0
 22 23  1  0
 23 24  1  0
 24 25  2  0
 24 30  1  0
 25 26  1  0
 26 27  2  0
 27 28  1  0
 27 29  1  0
 29 30  2  0
M  END
$$$$
