
     RDKit          3D

 28 31  0  0  0  0  0  0  0  0999 V2000
    1.3023   -0.4908   -0.1440 O   0  0  0  0  0  0  0  0  0  0  0  0
    2.4599   -0.5454    0.2884 C   0  0  0  0  0  0  0  0  0  0  0  0
    3.4503   -0.7115   -0.6507 N   0  0  0  0  0  0  0  0  0  0  0  0
    4.8149   -0.3662   -0.6037 C   0  0  0  0  0  0  0  0  0  0  0  0
    5.2433    0.8440   -0.0663 C   0  0  0  0  0  0  0  0  0  0  0  0
    6.5293    1.2619   -0.0452 N   0  0  0  0  0  0  0  0  0  0  0  0
    7.4338    0.4414   -0.6193 C   0  0  0  0  0  0  0  0  0  0  0  0
    7.1260   -0.7781   -1.2248 C   0  0  0  0  0  0  0  0  0  0  0  0
    8.1218   -1.5839   -1.8061 C   0  0  0  0  0  0  0  0  0  0  0  0
    7.7955   -2.8033   -2.3921 C   0  0  0  0  0  0  0  0  0  0  0  0
    6.4722   -3.2312   -2.4064 C   0  0  0  0  0  0  0  0  0  0  0  0
    5.4749   -2.4391   -1.8358 C   0  0  0  0  0  0  0  0  0  0  0  0
    5.7760   -1.1932   -1.2332 C   0  0  0  0  0  0  0  0  0  0  0  0
    2.7886   -0.6782    1.8395 C   0  0  0  0  0  0  0  0  0  0  0  0
    3.6630    0.3926    2.2074 O   0  0  0  0  0  0  0  0  0  0  0  0
    4.6735    0.2151    3.2007 C   0  0  0  0  0  0  0  0  0  0  0  0
    4.1661    0.3716    4.6341 C   0  0  0  0  0  0  0  0  0  0  0  0
    3.5726   -0.8270    5.1175 O   0  0  0  0  0  0  0  0  0  0  0  0
    3.3410   -2.1015    2.0592 C   0  0  0  0  0  0  0  0  0  0  0  0
    2.2175   -3.1098    1.8856 C   0  0  0  0  0  0  0  0  0  0  0  0
    1.2048   -2.9418    2.8779 O   0  0  0  0  0  0  0  0  0  0  0  0
    0.7938   -1.6540    3.0818 C   0  0  0  0  0  0  0  0  0  0  0  0
   -0.3770   -1.5125    3.8311 C   0  0  0  0  0  0  0  0  0  0  0  0
   -0.8836   -0.2447    4.1158 C   0  0  0  0  0  0  0  0  0  0  0  0
   -0.2161    0.8824    3.6471 C   0  0  0  0  0  0  0  0  0  0  0  0
   -0.8341    2.4493    3.9953 Cl  0  0  0  0  0  0  0  0  0  0  0  0
    0.9589    0.7499    2.9081 C   0  0  0  0  0  0  0  0  0  0  0  0
    1.4924   -0.5250    2.6325 C   0  0  0  0  0  0  0  0  0  0  0  0
  1  2  2  0
  2  3  1  0
  2 14  1  0
  3  4  1  0
  4  5  2  0
  4 13  1  0
  5  6  1  0
  6  7  2  0
  7  8  1  0
  8  9  1  0
  8 13  2  0
  9 10  2  0
 10 11  1  0
 11 12  2  0
 12 13  1  0
 14 15  1  0
 14 19  1  0
 14 28  1  0
 15 16  1  0
 16 17  1  0
 17 18  1  0
 19 20  1  0
 20 21  1  0
 21 22  1  0
 22 23  2  0
 22 28  1  0
 23 24  1  0
 24 25  2  0
 25 26  1  0
 25 27  1  0
 27 28  2  0
M  END
$$$$
