
     RDKit          3D

 30 33  0  0  0  0  0  0  0  0999 V2000
    0.3885   -0.8744   -0.4056 C   0  0  0  0  0  0  0  0  0  0  0  0
   -0.2240   -1.5219    0.7528 N   0  0  0  0  0  0  0  0  0  0  0  0
   -1.8869   -1.4429    0.9725 S   0  0  0  0  0  0  0  0  0  0  0  0
   -2.4965   -1.8033   -0.2872 O   0  0  0  0  0  0  0  0  0  0  0  0
   -2.2118   -2.1671    2.1828 O   0  0  0  0  0  0  0  0  0  0  0  0
   -2.2070    0.2932    1.2285 C   0  0  0  0  0  0  0  0  0  0  0  0
   -2.0603    0.9184    2.6458 C   0  0  0  0  0  0  0  0  0  0  0  0
   -0.7892    0.4583    3.4178 C   0  0  0  0  0  0  0  0  0  0  0  0
   -0.0840   -0.4834    3.0553 O   0  0  0  0  0  0  0  0  0  0  0  0
   -0.4765    1.0475    4.6419 N   0  0  0  0  0  0  0  0  0  0  0  0
    0.3070    2.2462    4.5589 C   0  0  0  0  0  0  0  0  0  0  0  0
   -0.2730    3.4543    4.9304 C   0  0  0  0  0  0  0  0  0  0  0  0
    0.2748    4.6580    4.6629 N   0  0  0  0  0  0  0  0  0  0  0  0
    1.4319    4.6495    3.9601 C   0  0  0  0  0  0  0  0  0  0  0  0
    2.1289    3.4978    3.5803 C   0  0  0  0  0  0  0  0  0  0  0  0
    3.3093    3.5515    2.8149 C   0  0  0  0  0  0  0  0  0  0  0  0
    4.0058    2.3871    2.4902 C   0  0  0  0  0  0  0  0  0  0  0  0
    3.5535    1.1612    2.9558 C   0  0  0  0  0  0  0  0  0  0  0  0
    2.3671    1.0957    3.6848 C   0  0  0  0  0  0  0  0  0  0  0  0
    1.5961    2.2525    3.9632 C   0  0  0  0  0  0  0  0  0  0  0  0
   -3.2657    0.5279    3.5449 C   0  0  0  0  0  0  0  0  0  0  0  0
   -4.4737    1.4086    3.2912 C   0  0  0  0  0  0  0  0  0  0  0  0
   -4.1721    2.7679    3.5913 O   0  0  0  0  0  0  0  0  0  0  0  0
   -3.1168    3.2488    2.8689 C   0  0  0  0  0  0  0  0  0  0  0  0
   -3.1218    4.6284    2.6447 C   0  0  0  0  0  0  0  0  0  0  0  0
   -2.1136    5.2225    1.8879 C   0  0  0  0  0  0  0  0  0  0  0  0
   -1.0905    4.4339    1.3759 C   0  0  0  0  0  0  0  0  0  0  0  0
    0.1539    5.1507    0.4276 Cl  0  0  0  0  0  0  0  0  0  0  0  0
   -1.0602    3.0602    1.6307 C   0  0  0  0  0  0  0  0  0  0  0  0
   -2.0750    2.4406    2.3929 C   0  0  0  0  0  0  0  0  0  0  0  0
  1  2  1  0
  2  3  1  0
  3  4  2  0
  3  5  2  0
  3  6  1  0
  6  7  1  0
  7  8  1  0
  7 21  1  0
  7 30  1  0
  8  9  2  0
  8 10  1  0
 10 11  1  0
 11 12  2  0
 11 20  1  0
 12 13  1  0
 13 14  2  0
 14 15  1  0
 15 16  1  0
 15 20  2  0
 16 17  2  0
 17 18  1  0
 18 19  2  0
 19 20  1  0
 21 22  1  0
 22 23  1  0
 23 24  1  0
 24 25  2  0
 24 30  1  0
 25 26  1  0
 26 27  2  0
 27 28  1  0
 27 29  1  0
 29 30  2  0
M  END
$$$$
