lig_18658-1
     RDKit          3D

 47 48  0  0  0  0  0  0  0  0999 V2000
   24.2850   12.3290   28.3280 O   0  0  0  0  0  0  0  0  0  0  0  0
   23.5040   12.4810   29.5030 C   0  0  0  0  0  0  0  0  0  0  0  0
   22.9870   11.1260   30.0090 C   0  0  0  0  0  0  0  0  0  0  0  0
   22.1130   11.3520   31.1180 O   0  0  0  0  0  0  0  0  0  0  0  0
   21.3840   10.2940   31.6330 C   0  0  0  0  0  0  0  0  0  0  0  0
   21.7290    9.0440   31.2230 N   0  0  0  0  0  0  0  0  0  0  0  0
   20.9900    8.0070   31.6470 C   0  0  0  0  0  0  0  0  0  0  0  0
   19.9090    8.1490   32.5070 C   0  0  0  0  0  0  0  0  0  0  0  0
   19.5590    9.4230   32.9200 C   0  0  0  0  0  0  0  0  0  0  0  0
   18.4400    9.5050   33.7390 N   0  0  0  0  0  0  0  0  0  0  0  0
   20.3030   10.5320   32.4890 C   0  0  0  0  0  0  0  0  0  0  0  0
   19.9760   11.9040   32.8620 C   0  0  0  0  0  0  0  0  0  0  0  0
   19.7240   12.9960   33.1510 N   0  0  0  0  0  0  0  0  0  0  0  0
   21.4470    6.8220   31.1060 N   0  0  0  0  0  0  0  0  0  0  0  0
   20.8620    5.6230   31.0280 C   0  0  0  0  0  0  0  0  0  0  0  0
   19.7370    5.3650   31.4500 O   0  0  0  0  0  0  0  0  0  0  0  0
   21.6460    4.5490   30.2820 C   0  0  0  0  0  0  0  0  0  0  0  0
   23.0170    4.2600   30.8880 C   0  0  0  0  0  0  0  0  0  0  0  0
   24.1160    5.0840   30.5960 C   0  0  0  0  0  0  0  0  0  0  0  0
   23.8950    6.1740   29.7720 O   0  0  0  0  0  0  0  0  0  0  0  0
   24.9290    7.1390   29.5900 C   0  0  0  0  0  0  0  0  0  0  0  0
   25.3630    4.7660   31.1520 C   0  0  0  0  0  0  0  0  0  0  0  0
   25.5000    3.6730   32.0090 C   0  0  0  0  0  0  0  0  0  0  0  0
   24.4120    2.8580   32.3080 C   0  0  0  0  0  0  0  0  0  0  0  0
   23.1690    3.1580   31.7360 C   0  0  0  0  0  0  0  0  0  0  0  0
   24.6400    1.8060   33.1700 O   0  0  0  0  0  0  0  0  0  0  0  0
   23.7220    0.7160   33.1860 C   0  0  0  0  0  0  0  0  0  0  0  0
   23.6920   12.1650   27.5700 H   0  0  0  0  0  0  0  0  0  0  0  0
   24.1050   12.9600   30.2770 H   0  0  0  0  0  0  0  0  0  0  0  0
   22.6670   13.1500   29.2940 H   0  0  0  0  0  0  0  0  0  0  0  0
   22.4490   10.6180   29.2050 H   0  0  0  0  0  0  0  0  0  0  0  0
   23.8210   10.4850   30.3030 H   0  0  0  0  0  0  0  0  0  0  0  0
   19.3380    7.2970   32.8370 H   0  0  0  0  0  0  0  0  0  0  0  0
   17.9520    8.6580   34.0160 H   0  0  0  0  0  0  0  0  0  0  0  0
   18.0430   10.4110   33.9760 H   0  0  0  0  0  0  0  0  0  0  0  0
   22.3580    6.9200   30.6830 H   0  0  0  0  0  0  0  0  0  0  0  0
   21.0660    3.6320   30.2170 H   0  0  0  0  0  0  0  0  0  0  0  0
   21.7670    4.9120   29.2660 H   0  0  0  0  0  0  0  0  0  0  0  0
   25.8010    6.7080   29.0960 H   0  0  0  0  0  0  0  0  0  0  0  0
   24.5600    7.9440   28.9550 H   0  0  0  0  0  0  0  0  0  0  0  0
   25.2350    7.5870   30.5370 H   0  0  0  0  0  0  0  0  0  0  0  0
   26.2360    5.3620   30.9360 H   0  0  0  0  0  0  0  0  0  0  0  0
   26.4620    3.4450   32.4440 H   0  0  0  0  0  0  0  0  0  0  0  0
   22.3140    2.5340   31.9470 H   0  0  0  0  0  0  0  0  0  0  0  0
   24.0960   -0.0560   33.8590 H   0  0  0  0  0  0  0  0  0  0  0  0
   22.7350    1.0020   33.5460 H   0  0  0  0  0  0  0  0  0  0  0  0
   23.6200    0.2630   32.2000 H   0  0  0  0  0  0  0  0  0  0  0  0
  1  2  1  0
  1 28  1  0
  2  3  1  0
  2 29  1  0
  2 30  1  0
  3  4  1  0
  3 31  1  0
  3 32  1  0
  4  5  1  0
  5 11  2  0
  5  6  1  0
  6  7  2  0
  7  8  1  0
  7 14  1  0
  8  9  2  0
  8 33  1  0
  9 10  1  0
  9 11  1  0
 10 34  1  0
 10 35  1  0
 11 12  1  0
 12 13  3  0
 14 15  1  0
 14 36  1  0
 15 16  2  0
 15 17  1  0
 17 18  1  0
 17 37  1  0
 17 38  1  0
 18 25  1  0
 18 19  2  0
 19 20  1  0
 19 22  1  0
 20 21  1  0
 21 39  1  0
 21 40  1  0
 21 41  1  0
 22 23  2  0
 22 42  1  0
 23 24  1  0
 23 43  1  0
 24 25  2  0
 24 26  1  0
 25 44  1  0
 26 27  1  0
 27 45  1  0
 27 46  1  0
 27 47  1  0
M  END
$$$$
