
     RDKit          3D

 26 29  0  0  0  0  0  0  0  0999 V2000
    1.2504   -0.0319   -1.1665 C   0  0  0  0  0  0  0  0  0  0  0  0
    1.7871    0.4695    0.0432 O   0  0  0  0  0  0  0  0  0  0  0  0
    1.9290   -0.4392    1.1700 C   0  0  0  0  0  0  0  0  0  0  0  0
    2.7355    0.4303    2.2206 C   0  0  0  0  0  0  0  0  0  0  0  0
    3.1764    1.5579    1.9602 O   0  0  0  0  0  0  0  0  0  0  0  0
    3.0969   -0.0645    3.4613 N   0  0  0  0  0  0  0  0  0  0  0  0
    2.1366   -0.6107    4.3498 C   0  0  0  0  0  0  0  0  0  0  0  0
    2.1159   -1.9858    4.5609 C   0  0  0  0  0  0  0  0  0  0  0  0
    1.2791   -2.6075    5.4177 N   0  0  0  0  0  0  0  0  0  0  0  0
    0.4313   -1.8137    6.1093 C   0  0  0  0  0  0  0  0  0  0  0  0
    0.3835   -0.4208    6.0120 C   0  0  0  0  0  0  0  0  0  0  0  0
   -0.5164    0.3415    6.7786 C   0  0  0  0  0  0  0  0  0  0  0  0
   -0.5424    1.7306    6.6717 C   0  0  0  0  0  0  0  0  0  0  0  0
    0.3291    2.3723    5.8007 C   0  0  0  0  0  0  0  0  0  0  0  0
    1.2260    1.6257    5.0329 C   0  0  0  0  0  0  0  0  0  0  0  0
    1.2730    0.2121    5.1160 C   0  0  0  0  0  0  0  0  0  0  0  0
    2.8554   -1.6213    0.8039 C   0  0  0  0  0  0  0  0  0  0  0  0
    2.1531   -2.8333    0.2208 C   0  0  0  0  0  0  0  0  0  0  0  0
    0.9962   -3.5364    1.4132 S   0  0  0  0  0  0  0  0  0  0  0  0
    0.0520   -2.0828    1.8248 C   0  0  0  0  0  0  0  0  0  0  0  0
   -1.2326   -2.3042    2.3479 C   0  0  0  0  0  0  0  0  0  0  0  0
   -2.0605   -1.2377    2.6990 C   0  0  0  0  0  0  0  0  0  0  0  0
   -1.6104    0.0629    2.5232 C   0  0  0  0  0  0  0  0  0  0  0  0
   -2.6216    1.3854    2.9516 Cl  0  0  0  0  0  0  0  0  0  0  0  0
   -0.3364    0.2989    2.0106 C   0  0  0  0  0  0  0  0  0  0  0  0
    0.5291   -0.7696    1.6766 C   0  0  0  0  0  0  0  0  0  0  0  0
  1  2  1  0
  2  3  1  0
  3  4  1  0
  3 17  1  0
  3 26  1  0
  4  5  2  0
  4  6  1  0
  6  7  1  0
  7  8  2  0
  7 16  1  0
  8  9  1  0
  9 10  2  0
 10 11  1  0
 11 12  1  0
 11 16  2  0
 12 13  2  0
 13 14  1  0
 14 15  2  0
 15 16  1  0
 17 18  1  0
 18 19  1  0
 19 20  1  0
 20 21  2  0
 20 26  1  0
 21 22  1  0
 22 23  2  0
 23 24  1  0
 23 25  1  0
 25 26  2  0
M  END
$$$$
