
     RDKit          3D

 26 29  0  0  0  0  0  0  0  0999 V2000
    1.6604   -1.3490    0.5707 C   0  0  0  0  0  0  0  0  0  0  0  0
    1.3268   -1.3523   -0.8054 O   0  0  0  0  0  0  0  0  0  0  0  0
    1.8685   -0.3063   -1.6490 C   0  0  0  0  0  0  0  0  0  0  0  0
    1.4693   -0.7514   -3.1079 C   0  0  0  0  0  0  0  0  0  0  0  0
    0.9661   -1.8556   -3.3554 O   0  0  0  0  0  0  0  0  0  0  0  0
    1.7823    0.0109   -4.2199 N   0  0  0  0  0  0  0  0  0  0  0  0
    1.3457    1.3560   -4.3355 C   0  0  0  0  0  0  0  0  0  0  0  0
    2.2710    2.3855   -4.1886 C   0  0  0  0  0  0  0  0  0  0  0  0
    1.9756    3.6946   -4.3337 N   0  0  0  0  0  0  0  0  0  0  0  0
    0.6939    3.9881   -4.6497 C   0  0  0  0  0  0  0  0  0  0  0  0
   -0.3159    3.0433   -4.8512 C   0  0  0  0  0  0  0  0  0  0  0  0
   -1.6267    3.4247   -5.1913 C   0  0  0  0  0  0  0  0  0  0  0  0
   -2.6174    2.4655   -5.3930 C   0  0  0  0  0  0  0  0  0  0  0  0
   -2.3108    1.1174   -5.2572 C   0  0  0  0  0  0  0  0  0  0  0  0
   -1.0134    0.7267   -4.9174 C   0  0  0  0  0  0  0  0  0  0  0  0
    0.0148    1.6782   -4.7046 C   0  0  0  0  0  0  0  0  0  0  0  0
    3.4080   -0.2793   -1.6020 C   0  0  0  0  0  0  0  0  0  0  0  0
    3.9162    0.7274   -0.5861 C   0  0  0  0  0  0  0  0  0  0  0  0
    3.4165    2.0362   -0.8510 O   0  0  0  0  0  0  0  0  0  0  0  0
    2.0501    2.0987   -0.8785 C   0  0  0  0  0  0  0  0  0  0  0  0
    1.4875    3.3395   -0.5778 C   0  0  0  0  0  0  0  0  0  0  0  0
    0.1029    3.5027   -0.5994 C   0  0  0  0  0  0  0  0  0  0  0  0
   -0.7129    2.4216   -0.9228 C   0  0  0  0  0  0  0  0  0  0  0  0
   -2.4207    2.6224   -0.9604 Cl  0  0  0  0  0  0  0  0  0  0  0  0
   -0.1541    1.1820   -1.2348 C   0  0  0  0  0  0  0  0  0  0  0  0
    1.2430    1.0142   -1.2441 C   0  0  0  0  0  0  0  0  0  0  0  0
  1  2  1  0
  2  3  1  0
  3  4  1  0
  3 17  1  0
  3 26  1  0
  4  5  2  0
  4  6  1  0
  6  7  1  0
  7  8  2  0
  7 16  1  0
  8  9  1  0
  9 10  2  0
 10 11  1  0
 11 12  1  0
 11 16  2  0
 12 13  2  0
 13 14  1  0
 14 15  2  0
 15 16  1  0
 17 18  1  0
 18 19  1  0
 19 20  1  0
 20 21  2  0
 20 26  1  0
 21 22  1  0
 22 23  2  0
 23 24  1  0
 23 25  1  0
 25 26  2  0
M  END
$$$$
