lig_46
  -OEChem-01312017303D

 45 48  0     0  0  0  0  0  0999 V2000
    3.8100  -50.0800    6.4300 O   0  5  0  0  0  0  0  0  0  0  0  0
    2.9400  -49.1700    6.5100 C   0  0  0  0  0  0  0  0  0  0  0  0
    3.2800  -47.9700    6.6700 O   0  0  0  0  0  0  0  0  0  0  0  0
    1.5200  -49.6100    6.4100 C   0  0  0  0  0  0  0  0  0  0  0  0
    1.0100  -51.1700    6.8300 N   0  0  0  0  0  0  0  0  0  0  0  0
    1.5300  -51.9500    7.1800 H   0  0  0  0  0  0  0  0  0  0  0  0
   -0.6500  -51.0200    6.4700 C   0  0  0  0  0  0  0  0  0  0  0  0
   -1.7400  -51.8800    6.5500 C   0  0  0  0  0  0  0  0  0  0  0  0
   -1.5900  -52.9000    6.8900 H   0  0  0  0  0  0  0  0  0  0  0  0
   -3.0100  -51.4600    6.1900 C   0  0  0  0  0  0  0  0  0  0  0  0
   -3.8500  -52.1300    6.2600 H   0  0  0  0  0  0  0  0  0  0  0  0
   -3.1800  -50.1500    5.7300 C   0  0  0  0  0  0  0  0  0  0  0  0
   -4.1700  -49.8000    5.4500 H   0  0  0  0  0  0  0  0  0  0  0  0
   -2.1000  -49.2800    5.6300 C   0  0  0  0  0  0  0  0  0  0  0  0
   -2.2500  -48.2700    5.2600 H   0  0  0  0  0  0  0  0  0  0  0  0
   -0.8300  -49.7000    6.0100 C   0  0  0  0  0  0  0  0  0  0  0  0
    0.3700  -48.9100    5.9700 C   0  0  0  0  0  0  0  0  0  0  0  0
    0.4000  -47.4900    5.5200 C   0  0  0  0  0  0  0  0  0  0  0  0
    1.2600  -47.3600    4.8600 H   0  0  0  0  0  0  0  0  0  0  0  0
   -0.5200  -47.2900    4.9700 H   0  0  0  0  0  0  0  0  0  0  0  0
    0.5100  -46.4700    6.6100 C   0  0  0  0  0  0  0  0  0  0  0  0
    0.4000  -45.4900    6.1500 H   0  0  0  0  0  0  0  0  0  0  0  0
    1.5100  -46.5600    7.0400 H   0  0  0  0  0  0  0  0  0  0  0  0
   -0.4600  -46.5400    7.7500 C   0  0  0  0  0  0  0  0  0  0  0  0
   -0.1700  -45.8100    8.5100 H   0  0  0  0  0  0  0  0  0  0  0  0
   -0.4300  -47.5400    8.1800 H   0  0  0  0  0  0  0  0  0  0  0  0
   -1.7400  -46.2700    7.3100 O   0  0  0  0  0  0  0  0  0  0  0  0
   -2.8300  -46.2900    8.1400 C   0  0  0  0  0  0  0  0  0  0  0  0
   -2.7700  -46.9300    9.3600 C   0  0  0  0  0  0  0  0  0  0  0  0
   -1.8600  -47.4200    9.6800 H   0  0  0  0  0  0  0  0  0  0  0  0
   -3.9100  -46.9300   10.1700 C   0  0  0  0  0  0  0  0  0  0  0  0
   -5.0900  -46.3100    9.7700 C   0  0  0  0  0  0  0  0  0  0  0  0
   -5.1300  -45.6700    8.5400 C   0  0  0  0  0  0  0  0  0  0  0  0
   -6.0400  -45.1800    8.2100 H   0  0  0  0  0  0  0  0  0  0  0  0
   -3.9900  -45.6600    7.7200 C   0  0  0  0  0  0  0  0  0  0  0  0
   -4.0200  -45.1500    6.7700 H   0  0  0  0  0  0  0  0  0  0  0  0
   -4.1000  -47.6300   11.4300 C   0  0  0  0  0  0  0  0  0  0  0  0
   -3.4400  -47.2400   12.2000 H   0  0  0  0  0  0  0  0  0  0  0  0
   -3.9100  -48.7000   11.3100 H   0  0  0  0  0  0  0  0  0  0  0  0
   -6.0700  -46.3400   10.8000 C   0  0  0  0  0  0  0  0  0  0  0  0
   -7.0400  -46.6300   10.4000 H   0  0  0  0  0  0  0  0  0  0  0  0
   -6.1500  -45.3600   11.2800 H   0  0  0  0  0  0  0  0  0  0  0  0
   -5.5600  -47.3800   11.7900 C   0  0  0  0  0  0  0  0  0  0  0  0
   -5.6400  -47.0100   12.8100 H   0  0  0  0  0  0  0  0  0  0  0  0
   -6.1400  -48.3000   11.6900 H   0  0  0  0  0  0  0  0  0  0  0  0
 18 19  1  0  0  0  0
 18 20  1  0  0  0  0
 14 15  1  0  0  0  0
 12 13  1  0  0  0  0
 17 18  1  0  0  0  0
 18 21  1  0  0  0  0
 12 14  2  0  0  0  0
 14 16  1  0  0  0  0
 10 12  1  0  0  0  0
 16 17  1  0  0  0  0
  4 17  2  0  0  0  0
  7 16  2  0  0  0  0
 21 22  1  0  0  0  0
 10 11  1  0  0  0  0
  8 10  2  0  0  0  0
  2  4  1  0  0  0  0
  4  5  1  0  0  0  0
  1  2  1  0  0  0  0
  7  8  1  0  0  0  0
  5  7  1  0  0  0  0
  2  3  2  0  0  0  0
  8  9  1  0  0  0  0
 21 23  1  0  0  0  0
 21 24  1  0  0  0  0
 35 36  1  0  0  0  0
  5  6  1  0  0  0  0
 24 27  1  0  0  0  0
 27 28  1  0  0  0  0
 28 35  2  0  0  0  0
 33 35  1  0  0  0  0
 24 26  1  0  0  0  0
 24 25  1  0  0  0  0
 28 29  1  0  0  0  0
 33 34  1  0  0  0  0
 32 33  2  0  0  0  0
 29 30  1  0  0  0  0
 29 31  2  0  0  0  0
 31 32  1  0  0  0  0
 32 40  1  0  0  0  0
 31 37  1  0  0  0  0
 40 41  1  0  0  0  0
 40 42  1  0  0  0  0
 40 43  1  0  0  0  0
 37 39  1  0  0  0  0
 37 43  1  0  0  0  0
 37 38  1  0  0  0  0
 43 45  1  0  0  0  0
 43 44  1  0  0  0  0
M  CHG  1   1  -1
M  END
$$$$
