lig_47
  -OEChem-01312017303D

 43 46  0     0  0  0  0  0  0999 V2000
    3.8100  -50.0800    6.4300 O   0  5  0  0  0  0  0  0  0  0  0  0
    2.9400  -49.1700    6.5100 C   0  0  0  0  0  0  0  0  0  0  0  0
    3.2800  -47.9700    6.6700 O   0  0  0  0  0  0  0  0  0  0  0  0
    1.5200  -49.6100    6.4100 C   0  0  0  0  0  0  0  0  0  0  0  0
    1.0100  -51.1700    6.8300 N   0  0  0  0  0  0  0  0  0  0  0  0
    1.5300  -51.9500    7.1800 H   0  0  0  0  0  0  0  0  0  0  0  0
   -0.6500  -51.0200    6.4700 C   0  0  0  0  0  0  0  0  0  0  0  0
   -1.7400  -51.8800    6.5500 C   0  0  0  0  0  0  0  0  0  0  0  0
   -1.5900  -52.9000    6.8900 H   0  0  0  0  0  0  0  0  0  0  0  0
   -3.0100  -51.4600    6.1900 C   0  0  0  0  0  0  0  0  0  0  0  0
   -3.8500  -52.1300    6.2600 H   0  0  0  0  0  0  0  0  0  0  0  0
   -3.1800  -50.1500    5.7300 C   0  0  0  0  0  0  0  0  0  0  0  0
   -4.1700  -49.8000    5.4500 H   0  0  0  0  0  0  0  0  0  0  0  0
   -2.1000  -49.2800    5.6300 C   0  0  0  0  0  0  0  0  0  0  0  0
   -2.2500  -48.2700    5.2600 H   0  0  0  0  0  0  0  0  0  0  0  0
   -0.8300  -49.7000    6.0100 C   0  0  0  0  0  0  0  0  0  0  0  0
    0.3700  -48.9100    5.9700 C   0  0  0  0  0  0  0  0  0  0  0  0
    0.4000  -47.4900    5.5200 C   0  0  0  0  0  0  0  0  0  0  0  0
    1.1900  -47.3900    4.7800 H   0  0  0  0  0  0  0  0  0  0  0  0
   -0.5600  -47.2600    5.0600 H   0  0  0  0  0  0  0  0  0  0  0  0
    0.6500  -46.4800    6.6000 C   0  0  0  0  0  0  0  0  0  0  0  0
    0.6300  -45.5000    6.1300 H   0  0  0  0  0  0  0  0  0  0  0  0
    1.6500  -46.6700    6.9900 H   0  0  0  0  0  0  0  0  0  0  0  0
   -0.2800  -46.4300    7.7600 C   0  0  0  0  0  0  0  0  0  0  0  0
   -0.0300  -45.5900    8.4000 H   0  0  0  0  0  0  0  0  0  0  0  0
   -0.1900  -47.3600    8.3300 H   0  0  0  0  0  0  0  0  0  0  0  0
   -1.5900  -46.2900    7.3300 O   0  0  0  0  0  0  0  0  0  0  0  0
   -2.6600  -46.2600    8.1900 C   0  0  0  0  0  0  0  0  0  0  0  0
   -2.6200  -46.9200    9.3900 C   0  0  0  0  0  0  0  0  0  0  0  0
   -1.7400  -47.4900    9.6800 H   0  0  0  0  0  0  0  0  0  0  0  0
   -3.7300  -46.8600   10.2300 C   0  0  0  0  0  0  0  0  0  0  0  0
   -4.8700  -46.1400    9.8700 C   0  0  0  0  0  0  0  0  0  0  0  0
   -4.8900  -45.4700    8.6600 C   0  0  0  0  0  0  0  0  0  0  0  0
   -5.7700  -44.9100    8.3700 H   0  0  0  0  0  0  0  0  0  0  0  0
   -3.7800  -45.5300    7.8200 C   0  0  0  0  0  0  0  0  0  0  0  0
   -3.8000  -45.0000    6.8700 H   0  0  0  0  0  0  0  0  0  0  0  0
   -5.9800  -46.0900   10.7500 N   0  0  0  0  0  0  0  0  0  0  0  0
   -5.9500  -46.7700   11.9700 C   0  0  0  0  0  0  0  0  0  0  0  0
   -6.8000  -46.7200   12.6300 H   0  0  0  0  0  0  0  0  0  0  0  0
   -4.8200  -47.4900   12.3500 C   0  0  0  0  0  0  0  0  0  0  0  0
   -4.7900  -48.0100   13.2900 H   0  0  0  0  0  0  0  0  0  0  0  0
   -3.7100  -47.5500   11.4900 C   0  0  0  0  0  0  0  0  0  0  0  0
   -2.8400  -48.1100   11.7900 H   0  0  0  0  0  0  0  0  0  0  0  0
 18 19  1  0  0  0  0
 18 20  1  0  0  0  0
 14 15  1  0  0  0  0
 12 13  1  0  0  0  0
 17 18  1  0  0  0  0
 18 21  1  0  0  0  0
 12 14  2  0  0  0  0
 14 16  1  0  0  0  0
 10 12  1  0  0  0  0
 16 17  1  0  0  0  0
  4 17  2  0  0  0  0
  7 16  2  0  0  0  0
 21 22  1  0  0  0  0
 10 11  1  0  0  0  0
  8 10  2  0  0  0  0
  2  4  1  0  0  0  0
  4  5  1  0  0  0  0
  1  2  1  0  0  0  0
  7  8  1  0  0  0  0
  5  7  1  0  0  0  0
  2  3  2  0  0  0  0
  8  9  1  0  0  0  0
 21 23  1  0  0  0  0
 21 24  1  0  0  0  0
  5  6  1  0  0  0  0
 35 36  1  0  0  0  0
 24 27  1  0  0  0  0
 27 28  1  0  0  0  0
 24 26  1  0  0  0  0
 24 25  1  0  0  0  0
 28 35  2  0  0  0  0
 33 35  1  0  0  0  0
 28 29  1  0  0  0  0
 33 34  1  0  0  0  0
 32 33  2  0  0  0  0
 29 30  1  0  0  0  0
 29 31  2  0  0  0  0
 31 32  1  0  0  0  0
 32 37  1  0  0  0  0
 31 42  1  0  0  0  0
 37 38  2  0  0  0  0
 42 43  1  0  0  0  0
 40 42  2  0  0  0  0
 38 40  1  0  0  0  0
 38 39  1  0  0  0  0
 40 41  1  0  0  0  0
M  CHG  1   1  -1
M  END
$$$$
