lig_53
  -OEChem-01312017313D

 44 46  0     0  0  0  0  0  0999 V2000
    3.8100  -50.0800    6.4300 O   0  5  0  0  0  0  0  0  0  0  0  0
    2.9400  -49.1700    6.5100 C   0  0  0  0  0  0  0  0  0  0  0  0
    3.2800  -47.9700    6.6700 O   0  0  0  0  0  0  0  0  0  0  0  0
    1.5200  -49.6100    6.4100 C   0  0  0  0  0  0  0  0  0  0  0  0
    1.0100  -51.1700    6.8300 N   0  0  0  0  0  0  0  0  0  0  0  0
    1.5300  -51.9500    7.1800 H   0  0  0  0  0  0  0  0  0  0  0  0
   -0.6500  -51.0200    6.4700 C   0  0  0  0  0  0  0  0  0  0  0  0
   -1.7400  -51.8800    6.5500 C   0  0  0  0  0  0  0  0  0  0  0  0
   -1.5900  -52.9000    6.8900 H   0  0  0  0  0  0  0  0  0  0  0  0
   -3.0100  -51.4600    6.1900 C   0  0  0  0  0  0  0  0  0  0  0  0
   -4.3800  -52.5500    6.3100 Cl  0  0  0  0  0  0  0  0  0  0  0  0
   -3.1800  -50.1500    5.7300 C   0  0  0  0  0  0  0  0  0  0  0  0
   -4.1700  -49.8000    5.4500 H   0  0  0  0  0  0  0  0  0  0  0  0
   -2.1000  -49.2800    5.6300 C   0  0  0  0  0  0  0  0  0  0  0  0
   -2.2500  -48.2700    5.2600 H   0  0  0  0  0  0  0  0  0  0  0  0
   -0.8300  -49.7000    6.0100 C   0  0  0  0  0  0  0  0  0  0  0  0
    0.3700  -48.9100    5.9700 C   0  0  0  0  0  0  0  0  0  0  0  0
    0.4000  -47.4900    5.5200 C   0  0  0  0  0  0  0  0  0  0  0  0
    1.1900  -47.3900    4.7800 H   0  0  0  0  0  0  0  0  0  0  0  0
   -0.5600  -47.2600    5.0600 H   0  0  0  0  0  0  0  0  0  0  0  0
    0.6500  -46.4800    6.6000 C   0  0  0  0  0  0  0  0  0  0  0  0
    0.6300  -45.5000    6.1300 H   0  0  0  0  0  0  0  0  0  0  0  0
    1.6500  -46.6700    6.9900 H   0  0  0  0  0  0  0  0  0  0  0  0
   -0.2800  -46.4300    7.7600 C   0  0  0  0  0  0  0  0  0  0  0  0
    0.0400  -45.6500    8.4500 H   0  0  0  0  0  0  0  0  0  0  0  0
   -0.2700  -47.4000    8.2700 H   0  0  0  0  0  0  0  0  0  0  0  0
   -1.5700  -46.1600    7.3400 O   0  0  0  0  0  0  0  0  0  0  0  0
   -2.6400  -46.0900    8.1900 C   0  0  0  0  0  0  0  0  0  0  0  0
   -2.6100  -46.7400    9.4100 C   0  0  0  0  0  0  0  0  0  0  0  0
   -1.7400  -47.3100    9.7000 H   0  0  0  0  0  0  0  0  0  0  0  0
   -3.7100  -46.6500   10.2500 C   0  0  0  0  0  0  0  0  0  0  0  0
   -3.6900  -47.3100   11.5100 C   0  0  0  0  0  0  0  0  0  0  0  0
   -4.6400  -47.1300   12.0400 H   0  0  0  0  0  0  0  0  0  0  0  0
   -2.8700  -46.9300   12.1100 H   0  0  0  0  0  0  0  0  0  0  0  0
   -3.5700  -48.3800   11.3600 H   0  0  0  0  0  0  0  0  0  0  0  0
   -4.8400  -45.9100    9.8800 C   0  0  0  0  0  0  0  0  0  0  0  0
   -6.2200  -45.8100   10.9600 Cl  0  0  0  0  0  0  0  0  0  0  0  0
   -4.8600  -45.2600    8.6600 C   0  0  0  0  0  0  0  0  0  0  0  0
   -6.0100  -44.5100    8.2600 C   0  0  0  0  0  0  0  0  0  0  0  0
   -6.7600  -44.5600    9.0400 H   0  0  0  0  0  0  0  0  0  0  0  0
   -6.4100  -44.9200    7.3400 H   0  0  0  0  0  0  0  0  0  0  0  0
   -5.7200  -43.4700    8.1000 H   0  0  0  0  0  0  0  0  0  0  0  0
   -3.7500  -45.3500    7.8200 C   0  0  0  0  0  0  0  0  0  0  0  0
   -3.7600  -44.8400    6.8600 H   0  0  0  0  0  0  0  0  0  0  0  0
 18 19  1  0  0  0  0
 18 20  1  0  0  0  0
 14 15  1  0  0  0  0
 12 13  1  0  0  0  0
 17 18  1  0  0  0  0
 18 21  1  0  0  0  0
 12 14  2  0  0  0  0
 14 16  1  0  0  0  0
 10 12  1  0  0  0  0
 16 17  1  0  0  0  0
  4 17  2  0  0  0  0
  7 16  2  0  0  0  0
 21 22  1  0  0  0  0
 10 11  1  0  0  0  0
  8 10  2  0  0  0  0
  2  4  1  0  0  0  0
  4  5  1  0  0  0  0
  1  2  1  0  0  0  0
  7  8  1  0  0  0  0
  5  7  1  0  0  0  0
  2  3  2  0  0  0  0
  8  9  1  0  0  0  0
 21 23  1  0  0  0  0
 21 24  1  0  0  0  0
  5  6  1  0  0  0  0
 43 44  1  0  0  0  0
 24 27  1  0  0  0  0
 27 28  1  0  0  0  0
 39 41  1  0  0  0  0
 24 26  1  0  0  0  0
 24 25  1  0  0  0  0
 28 43  2  0  0  0  0
 38 43  1  0  0  0  0
 39 42  1  0  0  0  0
 28 29  1  0  0  0  0
 38 39  1  0  0  0  0
 39 40  1  0  0  0  0
 36 38  2  0  0  0  0
 29 30  1  0  0  0  0
 29 31  2  0  0  0  0
 31 36  1  0  0  0  0
 36 37  1  0  0  0  0
 31 32  1  0  0  0  0
 32 35  1  0  0  0  0
 32 33  1  0  0  0  0
 32 34  1  0  0  0  0
M  CHG  1   1  -1
M  END
$$$$
