
 OpenBabel06282217593D

 57 61  0  0  0  0  0  0  0  0999 V2000
    1.0782    1.1056    0.4050 N   0  0  0  0  0  0  0  0  0  0  0  0
    2.2165    0.9008    0.3034 C   0  0  0  0  0  0  0  0  0  0  0  0
    3.6558    0.6852    0.2528 C   0  0  0  0  0  0  0  0  0  0  0  0
    4.2028    0.3536   -1.1470 C   0  0  0  0  0  0  0  0  0  0  0  0
    3.3301   -0.8910   -2.1033 S   0  0  0  0  0  0  0  0  0  0  0  0
    2.0141   -1.1179   -1.5536 O   0  0  0  0  0  0  0  0  0  0  0  0
    3.4919   -0.5591   -3.5036 O   0  0  0  0  0  0  0  0  0  0  0  0
    4.1865   -2.3529   -1.8703 N   0  0  0  0  0  0  0  0  0  0  0  0
    4.4006   -2.6871   -0.4620 C   0  0  0  0  0  0  0  0  0  0  0  0
    4.8403   -4.0787   -0.1420 C   0  0  0  0  0  0  0  0  0  0  0  0
    5.5592   -4.2955    1.0504 C   0  0  0  0  0  0  0  0  0  0  0  0
    5.9369   -5.5783    1.4266 C   0  0  0  0  0  0  0  0  0  0  0  0
    5.5844   -6.6503    0.6154 C   0  0  0  0  0  0  0  0  0  0  0  0
    6.0364   -8.2421    1.0887 Cl  0  0  0  0  0  0  0  0  0  0  0  0
    4.8572   -6.4474   -0.5654 C   0  0  0  0  0  0  0  0  0  0  0  0
    4.4619   -5.1536   -0.9521 C   0  0  0  0  0  0  0  0  0  0  0  0
    3.7331   -4.8967   -2.2533 C   0  0  0  0  0  0  0  0  0  0  0  0
    2.3719   -5.5776   -2.4644 C   0  0  0  0  0  0  0  0  0  0  0  0
    2.2326   -6.4723   -3.3032 O   0  0  0  0  0  0  0  0  0  0  0  0
    1.2358   -5.0859   -1.8112 N   0  0  0  0  0  0  0  0  0  0  0  0
    1.1178   -5.5214   -0.4530 C   0  0  0  0  0  0  0  0  0  0  0  0
    1.5624   -4.6906    0.5632 C   0  0  0  0  0  0  0  0  0  0  0  0
    2.0841   -5.1564    1.7151 N   0  0  0  0  0  0  0  0  0  0  0  0
    2.2082   -6.5056    1.8050 C   0  0  0  0  0  0  0  0  0  0  0  0
    1.6907   -7.4223    0.8769 C   0  0  0  0  0  0  0  0  0  0  0  0
    1.9046   -8.8121    0.9327 C   0  0  0  0  0  0  0  0  0  0  0  0
    1.3046   -9.6663    0.0016 C   0  0  0  0  0  0  0  0  0  0  0  0
    0.4384   -9.1557   -0.9570 C   0  0  0  0  0  0  0  0  0  0  0  0
    0.2855   -7.7801   -1.0700 C   0  0  0  0  0  0  0  0  0  0  0  0
    0.9829   -6.9006   -0.2111 C   0  0  0  0  0  0  0  0  0  0  0  0
    3.5752   -3.4388   -2.7102 C   0  0  0  0  0  0  0  0  0  0  0  0
    4.4238    1.9474    0.8130 C   0  0  0  0  0  0  0  0  0  0  0  0
    5.3732    0.9848    1.5457 C   0  0  0  0  0  0  0  0  0  0  0  0
    4.2157   -0.0265    1.5502 C   0  0  0  0  0  0  0  0  0  0  0  0
    4.1289    1.2547   -1.7718 H   0  0  0  0  0  0  0  0  0  0  0  0
    5.2636    0.0826   -1.1412 H   0  0  0  0  0  0  0  0  0  0  0  0
    5.2185   -2.0340   -0.1413 H   0  0  0  0  0  0  0  0  0  0  0  0
    3.5050   -2.4736    0.1269 H   0  0  0  0  0  0  0  0  0  0  0  0
    5.8174   -3.4601    1.6998 H   0  0  0  0  0  0  0  0  0  0  0  0
    6.4901   -5.7291    2.3501 H   0  0  0  0  0  0  0  0  0  0  0  0
    4.5976   -7.3063   -1.1808 H   0  0  0  0  0  0  0  0  0  0  0  0
    4.3877   -5.3635   -3.0069 H   0  0  0  0  0  0  0  0  0  0  0  0
    0.4800   -5.5138   -2.3427 H   0  0  0  0  0  0  0  0  0  0  0  0
    1.5906   -3.6136    0.4310 H   0  0  0  0  0  0  0  0  0  0  0  0
    2.7770   -6.8462    2.6661 H   0  0  0  0  0  0  0  0  0  0  0  0
    2.5762   -9.2325    1.6772 H   0  0  0  0  0  0  0  0  0  0  0  0
    1.5070  -10.7334    0.0270 H   0  0  0  0  0  0  0  0  0  0  0  0
   -0.0810   -9.8153   -1.6473 H   0  0  0  0  0  0  0  0  0  0  0  0
   -0.3737   -7.3957   -1.8460 H   0  0  0  0  0  0  0  0  0  0  0  0
    2.5156   -3.2141   -2.8795 H   0  0  0  0  0  0  0  0  0  0  0  0
    4.0360   -3.3521   -3.7038 H   0  0  0  0  0  0  0  0  0  0  0  0
    4.8975    2.6059    0.0796 H   0  0  0  0  0  0  0  0  0  0  0  0
    3.8377    2.5712    1.5015 H   0  0  0  0  0  0  0  0  0  0  0  0
    5.7225    1.3114    2.5279 H   0  0  0  0  0  0  0  0  0  0  0  0
    6.2387    0.6696    0.9516 H   0  0  0  0  0  0  0  0  0  0  0  0
    3.5702    0.0699    2.4345 H   0  0  0  0  0  0  0  0  0  0  0  0
    4.5322   -1.0647    1.5144 H   0  0  0  0  0  0  0  0  0  0  0  0
  1  2  3  0  0  0  0
  2  3  1  0  0  0  0
  3  4  1  0  0  0  0
  3 32  1  0  0  0  0
  3 34  1  0  0  0  0
  4  5  1  0  0  0  0
  4 35  1  0  0  0  0
  4 36  1  0  0  0  0
  5  6  2  0  0  0  0
  5  7  2  0  0  0  0
  5  8  1  0  0  0  0
  8  9  1  0  0  0  0
  8 31  1  0  0  0  0
  9 10  1  0  0  0  0
  9 37  1  0  0  0  0
  9 38  1  0  0  0  0
 10 11  1  0  0  0  0
 10 16  2  0  0  0  0
 11 12  2  0  0  0  0
 11 39  1  0  0  0  0
 12 13  1  0  0  0  0
 12 40  1  0  0  0  0
 13 14  1  0  0  0  0
 13 15  2  0  0  0  0
 15 16  1  0  0  0  0
 15 41  1  0  0  0  0
 16 17  1  0  0  0  0
 17 18  1  0  0  0  0
 17 31  1  0  0  0  0
 17 42  1  0  0  0  0
 18 19  2  0  0  0  0
 18 20  1  0  0  0  0
 20 21  1  0  0  0  0
 20 43  1  0  0  0  0
 21 22  1  0  0  0  0
 21 30  2  0  0  0  0
 22 23  2  0  0  0  0
 22 44  1  0  0  0  0
 23 24  1  0  0  0  0
 24 25  2  0  0  0  0
 24 45  1  0  0  0  0
 25 26  1  0  0  0  0
 25 30  1  0  0  0  0
 26 27  2  0  0  0  0
 26 46  1  0  0  0  0
 27 28  1  0  0  0  0
 27 47  1  0  0  0  0
 28 29  2  0  0  0  0
 28 48  1  0  0  0  0
 29 30  1  0  0  0  0
 29 49  1  0  0  0  0
 31 50  1  0  0  0  0
 31 51  1  0  0  0  0
 32 33  1  0  0  0  0
 32 52  1  0  0  0  0
 32 53  1  0  0  0  0
 33 34  1  0  0  0  0
 33 54  1  0  0  0  0
 33 55  1  0  0  0  0
 34 56  1  0  0  0  0
 34 57  1  0  0  0  0
M  END
$$$$
