
 OpenBabel06282217593D

 55 59  0  0  0  0  0  0  0  0999 V2000
    1.0420   -0.2064   -0.0233 O   0  0  0  0  0  0  0  0  0  0  0  0
    2.2658   -0.1037    0.1007 C   0  0  0  0  0  0  0  0  0  0  0  0
    3.0397   -0.8678   -0.7443 N   0  0  0  0  0  0  0  0  0  0  0  0
    4.4446   -0.9520   -0.8208 C   0  0  0  0  0  0  0  0  0  0  0  0
    5.0453   -0.7392   -2.0596 C   0  0  0  0  0  0  0  0  0  0  0  0
    6.3779   -0.6471   -2.2489 N   0  0  0  0  0  0  0  0  0  0  0  0
    7.1537   -0.7873   -1.1504 C   0  0  0  0  0  0  0  0  0  0  0  0
    6.6731   -1.0827    0.1272 C   0  0  0  0  0  0  0  0  0  0  0  0
    7.5330   -1.2451    1.2290 C   0  0  0  0  0  0  0  0  0  0  0  0
    7.0295   -1.6117    2.4765 C   0  0  0  0  0  0  0  0  0  0  0  0
    5.6722   -1.8658    2.6251 C   0  0  0  0  0  0  0  0  0  0  0  0
    4.8135   -1.7005    1.5375 C   0  0  0  0  0  0  0  0  0  0  0  0
    5.2797   -1.2337    0.2864 C   0  0  0  0  0  0  0  0  0  0  0  0
    2.9052    0.9087    1.0648 C   0  0  0  0  0  0  0  0  0  0  0  0
    2.4902    0.6232    2.5159 C   0  0  0  0  0  0  0  0  0  0  0  0
    1.1437    1.1615    2.8515 N   0  0  0  0  0  0  0  0  0  0  0  0
    0.5393    0.7074    4.3772 S   0  0  0  0  0  0  0  0  0  0  0  0
    1.6051    0.9306    5.3322 O   0  0  0  0  0  0  0  0  0  0  0  0
   -0.7470    1.3474    4.5506 O   0  0  0  0  0  0  0  0  0  0  0  0
    0.2776   -1.0576    4.2507 C   0  0  0  0  0  0  0  0  0  0  0  0
   -0.6056   -1.4256    3.0822 C   0  0  0  0  0  0  0  0  0  0  0  0
   -1.1110   -2.8826    3.0947 C   0  0  0  0  0  0  0  0  0  0  0  0
   -2.4113   -2.3975    2.5870 N   0  0  0  0  0  0  0  0  0  0  0  0
   -2.1041   -1.0623    3.1528 C   0  0  0  0  0  0  0  0  0  0  0  0
    1.0827    2.6391    2.6656 C   0  0  0  0  0  0  0  0  0  0  0  0
    1.7726    3.1551    1.4205 C   0  0  0  0  0  0  0  0  0  0  0  0
    1.5967    4.5024    1.0597 C   0  0  0  0  0  0  0  0  0  0  0  0
    2.2497    5.0356   -0.0524 C   0  0  0  0  0  0  0  0  0  0  0  0
    3.0828    4.2246   -0.8148 C   0  0  0  0  0  0  0  0  0  0  0  0
    3.8986    4.8790   -2.1808 Cl  0  0  0  0  0  0  0  0  0  0  0  0
    3.2757    2.8882   -0.4686 C   0  0  0  0  0  0  0  0  0  0  0  0
    2.6302    2.3448    0.6571 C   0  0  0  0  0  0  0  0  0  0  0  0
    2.5053   -1.1586   -1.5578 H   0  0  0  0  0  0  0  0  0  0  0  0
    4.4544   -0.5726   -2.9566 H   0  0  0  0  0  0  0  0  0  0  0  0
    8.2190   -0.6735   -1.3379 H   0  0  0  0  0  0  0  0  0  0  0  0
    8.6052   -1.0939    1.1188 H   0  0  0  0  0  0  0  0  0  0  0  0
    7.7019   -1.7296    3.3230 H   0  0  0  0  0  0  0  0  0  0  0  0
    5.2822   -2.2004    3.5836 H   0  0  0  0  0  0  0  0  0  0  0  0
    3.7665   -1.9640    1.6643 H   0  0  0  0  0  0  0  0  0  0  0  0
    3.9918    0.8170    1.0393 H   0  0  0  0  0  0  0  0  0  0  0  0
    3.2286    1.0720    3.1934 H   0  0  0  0  0  0  0  0  0  0  0  0
    2.4938   -0.4549    2.6885 H   0  0  0  0  0  0  0  0  0  0  0  0
    1.2565   -1.5401    4.1792 H   0  0  0  0  0  0  0  0  0  0  0  0
   -0.1682   -1.3620    5.2045 H   0  0  0  0  0  0  0  0  0  0  0  0
   -0.1562   -1.1673    2.1150 H   0  0  0  0  0  0  0  0  0  0  0  0
   -0.5852   -3.5727    2.4283 H   0  0  0  0  0  0  0  0  0  0  0  0
   -1.1834   -3.3457    4.0865 H   0  0  0  0  0  0  0  0  0  0  0  0
   -2.4649   -2.3864    1.5668 H   0  0  0  0  0  0  0  0  0  0  0  0
   -2.5054   -0.9219    4.1632 H   0  0  0  0  0  0  0  0  0  0  0  0
   -2.4155   -0.2200    2.5284 H   0  0  0  0  0  0  0  0  0  0  0  0
    0.0274    2.9317    2.6083 H   0  0  0  0  0  0  0  0  0  0  0  0
    1.5459    3.1353    3.5280 H   0  0  0  0  0  0  0  0  0  0  0  0
    0.9529    5.1488    1.6544 H   0  0  0  0  0  0  0  0  0  0  0  0
    2.1084    6.0813   -0.3121 H   0  0  0  0  0  0  0  0  0  0  0  0
    3.9478    2.2767   -1.0664 H   0  0  0  0  0  0  0  0  0  0  0  0
  1  2  2  0  0  0  0
  2  3  1  0  0  0  0
  2 14  1  0  0  0  0
  3  4  1  0  0  0  0
  3 33  1  0  0  0  0
  4  5  1  0  0  0  0
  4 13  2  0  0  0  0
  5  6  2  0  0  0  0
  5 34  1  0  0  0  0
  6  7  1  0  0  0  0
  7  8  2  0  0  0  0
  7 35  1  0  0  0  0
  8  9  1  0  0  0  0
  8 13  1  0  0  0  0
  9 10  2  0  0  0  0
  9 36  1  0  0  0  0
 10 11  1  0  0  0  0
 10 37  1  0  0  0  0
 11 12  2  0  0  0  0
 11 38  1  0  0  0  0
 12 13  1  0  0  0  0
 12 39  1  0  0  0  0
 14 15  1  0  0  0  0
 14 32  1  0  0  0  0
 14 40  1  0  0  0  0
 15 16  1  0  0  0  0
 15 41  1  0  0  0  0
 15 42  1  0  0  0  0
 16 17  1  0  0  0  0
 16 25  1  0  0  0  0
 17 18  2  0  0  0  0
 17 19  2  0  0  0  0
 17 20  1  0  0  0  0
 20 21  1  0  0  0  0
 20 43  1  0  0  0  0
 20 44  1  0  0  0  0
 21 22  1  0  0  0  0
 21 24  1  0  0  0  0
 21 45  1  0  0  0  0
 22 23  1  0  0  0  0
 22 46  1  0  0  0  0
 22 47  1  0  0  0  0
 23 24  1  0  0  0  0
 23 48  1  0  0  0  0
 24 49  1  0  0  0  0
 24 50  1  0  0  0  0
 25 26  1  0  0  0  0
 25 51  1  0  0  0  0
 25 52  1  0  0  0  0
 26 27  1  0  0  0  0
 26 32  2  0  0  0  0
 27 28  2  0  0  0  0
 27 53  1  0  0  0  0
 28 29  1  0  0  0  0
 28 54  1  0  0  0  0
 29 30  1  0  0  0  0
 29 31  2  0  0  0  0
 31 32  1  0  0  0  0
 31 55  1  0  0  0  0
M  END
$$$$
