
 OpenBabel06282217593D

 57 61  0  0  0  0  0  0  0  0999 V2000
   -0.4053   -0.3791   -0.1326 C   0  0  0  0  0  0  0  0  0  0  0  0
   -0.2652   -1.1479   -1.3223 O   0  0  0  0  0  0  0  0  0  0  0  0
    0.4322   -0.5166   -2.4237 C   0  0  0  0  0  0  0  0  0  0  0  0
    1.7050   -1.1952   -2.8848 C   0  0  0  0  0  0  0  0  0  0  0  0
    2.8679   -1.4979   -1.5441 S   0  0  0  0  0  0  0  0  0  0  0  0
    2.1800   -1.8412   -0.3180 O   0  0  0  0  0  0  0  0  0  0  0  0
    3.8765   -2.4112   -2.0515 O   0  0  0  0  0  0  0  0  0  0  0  0
    3.7158   -0.0459   -1.2426 N   0  0  0  0  0  0  0  0  0  0  0  0
    2.9755    1.2207   -1.3470 C   0  0  0  0  0  0  0  0  0  0  0  0
    3.8184    2.4412   -1.0534 C   0  0  0  0  0  0  0  0  0  0  0  0
    3.4175    3.6876   -1.5656 C   0  0  0  0  0  0  0  0  0  0  0  0
    4.1695    4.8342   -1.3139 C   0  0  0  0  0  0  0  0  0  0  0  0
    5.3320    4.7407   -0.5565 C   0  0  0  0  0  0  0  0  0  0  0  0
    6.2575    6.1564   -0.2398 Cl  0  0  0  0  0  0  0  0  0  0  0  0
    5.7414    3.5119   -0.0370 C   0  0  0  0  0  0  0  0  0  0  0  0
    4.9665    2.3563   -0.2447 C   0  0  0  0  0  0  0  0  0  0  0  0
    5.3944    1.0239    0.3371 C   0  0  0  0  0  0  0  0  0  0  0  0
    5.6582    0.9874    1.8467 C   0  0  0  0  0  0  0  0  0  0  0  0
    6.6878    0.4807    2.3013 O   0  0  0  0  0  0  0  0  0  0  0  0
    4.6552    1.3316    2.7439 N   0  0  0  0  0  0  0  0  0  0  0  0
    4.2741    2.7016    2.8246 C   0  0  0  0  0  0  0  0  0  0  0  0
    3.0603    3.1095    2.2794 C   0  0  0  0  0  0  0  0  0  0  0  0
    2.6588    4.3962    2.2098 N   0  0  0  0  0  0  0  0  0  0  0  0
    3.5167    5.3171    2.7098 C   0  0  0  0  0  0  0  0  0  0  0  0
    4.7374    5.0226    3.3273 C   0  0  0  0  0  0  0  0  0  0  0  0
    5.5840    6.0296    3.8264 C   0  0  0  0  0  0  0  0  0  0  0  0
    6.7850    5.7048    4.4567 C   0  0  0  0  0  0  0  0  0  0  0  0
    7.1515    4.3736    4.6020 C   0  0  0  0  0  0  0  0  0  0  0  0
    6.3331    3.3679    4.0881 C   0  0  0  0  0  0  0  0  0  0  0  0
    5.1176    3.6679    3.4254 C   0  0  0  0  0  0  0  0  0  0  0  0
    4.4215   -0.1318    0.0791 C   0  0  0  0  0  0  0  0  0  0  0  0
   -0.5664   -0.2614   -3.5512 C   0  0  0  0  0  0  0  0  0  0  0  0
    0.0591    0.8929   -2.8519 C   0  0  0  0  0  0  0  0  0  0  0  0
   -0.8257   -1.0242    0.6437 H   0  0  0  0  0  0  0  0  0  0  0  0
   -1.0923    0.4557   -0.2909 H   0  0  0  0  0  0  0  0  0  0  0  0
    0.5562   -0.0029    0.2211 H   0  0  0  0  0  0  0  0  0  0  0  0
    1.4571   -2.1854   -3.2846 H   0  0  0  0  0  0  0  0  0  0  0  0
    2.2326   -0.6416   -3.6678 H   0  0  0  0  0  0  0  0  0  0  0  0
    2.6535    1.3204   -2.3849 H   0  0  0  0  0  0  0  0  0  0  0  0
    2.1145    1.2306   -0.6758 H   0  0  0  0  0  0  0  0  0  0  0  0
    2.5135    3.7740   -2.1655 H   0  0  0  0  0  0  0  0  0  0  0  0
    3.8434    5.7921   -1.7100 H   0  0  0  0  0  0  0  0  0  0  0  0
    6.6542    3.4629    0.5539 H   0  0  0  0  0  0  0  0  0  0  0  0
    6.3435    0.7818   -0.1621 H   0  0  0  0  0  0  0  0  0  0  0  0
    5.0408    1.0432    3.6417 H   0  0  0  0  0  0  0  0  0  0  0  0
    2.3674    2.3926    1.8497 H   0  0  0  0  0  0  0  0  0  0  0  0
    3.1830    6.3463    2.5968 H   0  0  0  0  0  0  0  0  0  0  0  0
    5.3156    7.0786    3.7195 H   0  0  0  0  0  0  0  0  0  0  0  0
    7.4341    6.4902    4.8352 H   0  0  0  0  0  0  0  0  0  0  0  0
    8.0797    4.1108    5.1039 H   0  0  0  0  0  0  0  0  0  0  0  0
    6.6696    2.3409    4.2130 H   0  0  0  0  0  0  0  0  0  0  0  0
    3.6573   -0.1731    0.8665 H   0  0  0  0  0  0  0  0  0  0  0  0
    4.9878   -1.0712    0.1317 H   0  0  0  0  0  0  0  0  0  0  0  0
   -0.2687   -0.4693   -4.5725 H   0  0  0  0  0  0  0  0  0  0  0  0
   -1.6139   -0.4697   -3.3560 H   0  0  0  0  0  0  0  0  0  0  0  0
   -0.5786    1.4963   -2.2174 H   0  0  0  0  0  0  0  0  0  0  0  0
    0.7473    1.4852   -3.4442 H   0  0  0  0  0  0  0  0  0  0  0  0
  1  2  1  0  0  0  0
  1 34  1  0  0  0  0
  1 35  1  0  0  0  0
  1 36  1  0  0  0  0
  2  3  1  0  0  0  0
  3  4  1  0  0  0  0
  3 32  1  0  0  0  0
  3 33  1  0  0  0  0
  4  5  1  0  0  0  0
  4 37  1  0  0  0  0
  4 38  1  0  0  0  0
  5  6  2  0  0  0  0
  5  7  2  0  0  0  0
  5  8  1  0  0  0  0
  8  9  1  0  0  0  0
  8 31  1  0  0  0  0
  9 10  1  0  0  0  0
  9 39  1  0  0  0  0
  9 40  1  0  0  0  0
 10 11  1  0  0  0  0
 10 16  2  0  0  0  0
 11 12  2  0  0  0  0
 11 41  1  0  0  0  0
 12 13  1  0  0  0  0
 12 42  1  0  0  0  0
 13 14  1  0  0  0  0
 13 15  2  0  0  0  0
 15 16  1  0  0  0  0
 15 43  1  0  0  0  0
 16 17  1  0  0  0  0
 17 18  1  0  0  0  0
 17 31  1  0  0  0  0
 17 44  1  0  0  0  0
 18 19  2  0  0  0  0
 18 20  1  0  0  0  0
 20 21  1  0  0  0  0
 20 45  1  0  0  0  0
 21 22  1  0  0  0  0
 21 30  2  0  0  0  0
 22 23  2  0  0  0  0
 22 46  1  0  0  0  0
 23 24  1  0  0  0  0
 24 25  2  0  0  0  0
 24 47  1  0  0  0  0
 25 26  1  0  0  0  0
 25 30  1  0  0  0  0
 26 27  2  0  0  0  0
 26 48  1  0  0  0  0
 27 28  1  0  0  0  0
 27 49  1  0  0  0  0
 28 29  2  0  0  0  0
 28 50  1  0  0  0  0
 29 30  1  0  0  0  0
 29 51  1  0  0  0  0
 31 52  1  0  0  0  0
 31 53  1  0  0  0  0
 32 33  1  0  0  0  0
 32 54  1  0  0  0  0
 32 55  1  0  0  0  0
 33 56  1  0  0  0  0
 33 57  1  0  0  0  0
M  END
$$$$
