
 OpenBabel06282217593D

 58 62  0  0  0  0  0  0  0  0999 V2000
    1.4743   -0.0559    0.0536 C   0  0  0  0  0  0  0  0  0  0  0  0
    0.6163   -1.2915   -0.2063 C   0  0  0  0  0  0  0  0  0  0  0  0
   -0.4811   -1.0712   -1.2499 C   0  0  0  0  0  0  0  0  0  0  0  0
   -1.8686   -0.0209   -0.7984 S   0  0  0  0  0  0  0  0  0  0  0  0
   -1.3825    1.2461   -0.3070 O   0  0  0  0  0  0  0  0  0  0  0  0
   -2.7762   -0.0366   -1.9338 O   0  0  0  0  0  0  0  0  0  0  0  0
   -2.7042   -0.8231    0.4702 N   0  0  0  0  0  0  0  0  0  0  0  0
   -3.2289   -2.1525    0.0681 C   0  0  0  0  0  0  0  0  0  0  0  0
   -3.8970   -2.8768    1.2065 C   0  0  0  0  0  0  0  0  0  0  0  0
   -3.7724   -4.2657    1.3532 C   0  0  0  0  0  0  0  0  0  0  0  0
   -4.4847   -4.9431    2.3465 C   0  0  0  0  0  0  0  0  0  0  0  0
   -5.3643   -4.2454    3.1648 C   0  0  0  0  0  0  0  0  0  0  0  0
   -6.2722   -5.0709    4.3682 Cl  0  0  0  0  0  0  0  0  0  0  0  0
   -5.4987   -2.8707    3.0268 C   0  0  0  0  0  0  0  0  0  0  0  0
   -4.7211   -2.1691    2.0859 C   0  0  0  0  0  0  0  0  0  0  0  0
   -4.7569   -0.6548    2.0593 C   0  0  0  0  0  0  0  0  0  0  0  0
   -4.7496   -0.1154    3.5076 C   0  0  0  0  0  0  0  0  0  0  0  0
   -5.7369    0.4581    3.9781 O   0  0  0  0  0  0  0  0  0  0  0  0
   -3.6956   -0.4385    4.3625 N   0  0  0  0  0  0  0  0  0  0  0  0
   -2.5288    0.3507    4.1606 C   0  0  0  0  0  0  0  0  0  0  0  0
   -1.4724   -0.1894    3.4485 C   0  0  0  0  0  0  0  0  0  0  0  0
   -0.5824    0.5641    2.7787 N   0  0  0  0  0  0  0  0  0  0  0  0
   -0.8299    1.8993    2.7536 C   0  0  0  0  0  0  0  0  0  0  0  0
   -1.8253    2.5424    3.5012 C   0  0  0  0  0  0  0  0  0  0  0  0
   -2.1214    3.9140    3.3978 C   0  0  0  0  0  0  0  0  0  0  0  0
   -3.0964    4.4981    4.2118 C   0  0  0  0  0  0  0  0  0  0  0  0
   -3.7503    3.7365    5.1718 C   0  0  0  0  0  0  0  0  0  0  0  0
   -3.5158    2.3685    5.2318 C   0  0  0  0  0  0  0  0  0  0  0  0
   -2.6104    1.7453    4.3428 C   0  0  0  0  0  0  0  0  0  0  0  0
   -3.8138    0.0429    1.0485 C   0  0  0  0  0  0  0  0  0  0  0  0
    1.5173   -2.4989   -0.6100 C   0  0  0  0  0  0  0  0  0  0  0  0
    0.7179   -3.3642    0.2787 N   0  0  0  0  0  0  0  0  0  0  0  0
    0.2980   -2.1659    1.0356 C   0  0  0  0  0  0  0  0  0  0  0  0
    0.9114    0.7338    0.5505 H   0  0  0  0  0  0  0  0  0  0  0  0
    1.8712    0.3508   -0.8829 H   0  0  0  0  0  0  0  0  0  0  0  0
    2.3304   -0.2882    0.6980 H   0  0  0  0  0  0  0  0  0  0  0  0
   -0.0448   -0.5939   -2.1376 H   0  0  0  0  0  0  0  0  0  0  0  0
   -0.9045   -2.0155   -1.6068 H   0  0  0  0  0  0  0  0  0  0  0  0
   -3.9563   -2.0493   -0.7459 H   0  0  0  0  0  0  0  0  0  0  0  0
   -2.4044   -2.7747   -0.2881 H   0  0  0  0  0  0  0  0  0  0  0  0
   -3.1149   -4.8336    0.6991 H   0  0  0  0  0  0  0  0  0  0  0  0
   -4.3612   -6.0153    2.4669 H   0  0  0  0  0  0  0  0  0  0  0  0
   -6.1899   -2.3363    3.6778 H   0  0  0  0  0  0  0  0  0  0  0  0
   -5.7686   -0.4016    1.7018 H   0  0  0  0  0  0  0  0  0  0  0  0
   -4.0785   -0.2168    5.2784 H   0  0  0  0  0  0  0  0  0  0  0  0
   -1.3731   -1.2629    3.3270 H   0  0  0  0  0  0  0  0  0  0  0  0
   -0.2014    2.4578    2.0640 H   0  0  0  0  0  0  0  0  0  0  0  0
   -1.6191    4.5260    2.6525 H   0  0  0  0  0  0  0  0  0  0  0  0
   -3.3437    5.5500    4.1012 H   0  0  0  0  0  0  0  0  0  0  0  0
   -4.4741    4.1891    5.8444 H   0  0  0  0  0  0  0  0  0  0  0  0
   -4.0650    1.7866    5.9693 H   0  0  0  0  0  0  0  0  0  0  0  0
   -3.3863    0.9532    1.4755 H   0  0  0  0  0  0  0  0  0  0  0  0
   -4.4328    0.3727    0.2008 H   0  0  0  0  0  0  0  0  0  0  0  0
    1.5045   -2.7947   -1.6640 H   0  0  0  0  0  0  0  0  0  0  0  0
    2.5670   -2.4343   -0.2962 H   0  0  0  0  0  0  0  0  0  0  0  0
   -0.0439   -3.8489   -0.1920 H   0  0  0  0  0  0  0  0  0  0  0  0
    0.9317   -1.9734    1.9101 H   0  0  0  0  0  0  0  0  0  0  0  0
   -0.7342   -2.2091    1.3751 H   0  0  0  0  0  0  0  0  0  0  0  0
  1  2  1  0  0  0  0
  1 34  1  0  0  0  0
  1 35  1  0  0  0  0
  1 36  1  0  0  0  0
  2  3  1  0  0  0  0
  2 31  1  0  0  0  0
  2 33  1  0  0  0  0
  3  4  1  0  0  0  0
  3 37  1  0  0  0  0
  3 38  1  0  0  0  0
  4  5  2  0  0  0  0
  4  6  2  0  0  0  0
  4  7  1  0  0  0  0
  7  8  1  0  0  0  0
  7 30  1  0  0  0  0
  8  9  1  0  0  0  0
  8 39  1  0  0  0  0
  8 40  1  0  0  0  0
  9 10  1  0  0  0  0
  9 15  2  0  0  0  0
 10 11  2  0  0  0  0
 10 41  1  0  0  0  0
 11 12  1  0  0  0  0
 11 42  1  0  0  0  0
 12 13  1  0  0  0  0
 12 14  2  0  0  0  0
 14 15  1  0  0  0  0
 14 43  1  0  0  0  0
 15 16  1  0  0  0  0
 16 17  1  0  0  0  0
 16 30  1  0  0  0  0
 16 44  1  0  0  0  0
 17 18  2  0  0  0  0
 17 19  1  0  0  0  0
 19 20  1  0  0  0  0
 19 45  1  0  0  0  0
 20 21  1  0  0  0  0
 20 29  2  0  0  0  0
 21 22  2  0  0  0  0
 21 46  1  0  0  0  0
 22 23  1  0  0  0  0
 23 24  2  0  0  0  0
 23 47  1  0  0  0  0
 24 25  1  0  0  0  0
 24 29  1  0  0  0  0
 25 26  2  0  0  0  0
 25 48  1  0  0  0  0
 26 27  1  0  0  0  0
 26 49  1  0  0  0  0
 27 28  2  0  0  0  0
 27 50  1  0  0  0  0
 28 29  1  0  0  0  0
 28 51  1  0  0  0  0
 30 52  1  0  0  0  0
 30 53  1  0  0  0  0
 31 32  1  0  0  0  0
 31 54  1  0  0  0  0
 31 55  1  0  0  0  0
 32 33  1  0  0  0  0
 32 56  1  0  0  0  0
 33 57  1  0  0  0  0
 33 58  1  0  0  0  0
M  END
$$$$
