
 OpenBabel06282217593D

 59 62  0  0  0  0  0  0  0  0999 V2000
    1.1788    0.3867   -0.4186 C   0  0  0  0  0  0  0  0  0  0  0  0
    0.7102   -0.9162   -0.7222 O   0  0  0  0  0  0  0  0  0  0  0  0
    0.7883   -1.3791   -2.0694 C   0  0  0  0  0  0  0  0  0  0  0  0
   -0.1004   -0.4893   -2.9673 C   0  0  0  0  0  0  0  0  0  0  0  0
    2.2099   -1.3505   -2.6552 C   0  0  0  0  0  0  0  0  0  0  0  0
    0.2025   -2.7968   -2.1326 C   0  0  0  0  0  0  0  0  0  0  0  0
    0.4403   -3.9436   -0.7825 S   0  0  0  0  0  0  0  0  0  0  0  0
    0.0013   -3.3860    0.4821 O   0  0  0  0  0  0  0  0  0  0  0  0
   -0.1525   -5.1836   -1.2439 O   0  0  0  0  0  0  0  0  0  0  0  0
    2.1183   -4.2290   -0.6710 N   0  0  0  0  0  0  0  0  0  0  0  0
    2.8387   -3.2688    0.2117 C   0  0  0  0  0  0  0  0  0  0  0  0
    4.3324   -3.4690    0.1011 C   0  0  0  0  0  0  0  0  0  0  0  0
    5.2036   -2.3698    0.1597 C   0  0  0  0  0  0  0  0  0  0  0  0
    6.5831   -2.5575    0.0771 C   0  0  0  0  0  0  0  0  0  0  0  0
    7.0967   -3.8447   -0.0536 C   0  0  0  0  0  0  0  0  0  0  0  0
    8.8002   -4.0739   -0.1470 Cl  0  0  0  0  0  0  0  0  0  0  0  0
    6.2433   -4.9489   -0.1047 C   0  0  0  0  0  0  0  0  0  0  0  0
    4.8511   -4.7740   -0.0122 C   0  0  0  0  0  0  0  0  0  0  0  0
    3.9105   -5.9608   -0.1171 C   0  0  0  0  0  0  0  0  0  0  0  0
    4.0314   -7.0465    0.9568 C   0  0  0  0  0  0  0  0  0  0  0  0
    4.1250   -8.2383    0.6496 O   0  0  0  0  0  0  0  0  0  0  0  0
    3.8269   -6.7287    2.2955 N   0  0  0  0  0  0  0  0  0  0  0  0
    4.8815   -6.0170    2.9383 C   0  0  0  0  0  0  0  0  0  0  0  0
    4.7350   -4.6593    3.1963 C   0  0  0  0  0  0  0  0  0  0  0  0
    5.7497   -3.8509    3.5640 N   0  0  0  0  0  0  0  0  0  0  0  0
    6.9660   -4.4341    3.6718 C   0  0  0  0  0  0  0  0  0  0  0  0
    7.2104   -5.8045    3.5310 C   0  0  0  0  0  0  0  0  0  0  0  0
    8.4955   -6.3563    3.6766 C   0  0  0  0  0  0  0  0  0  0  0  0
    8.6932   -7.7349    3.5948 C   0  0  0  0  0  0  0  0  0  0  0  0
    7.6125   -8.5777    3.3717 C   0  0  0  0  0  0  0  0  0  0  0  0
    6.3440   -8.0372    3.1677 C   0  0  0  0  0  0  0  0  0  0  0  0
    6.1205   -6.6393    3.2162 C   0  0  0  0  0  0  0  0  0  0  0  0
    2.4095   -5.6261   -0.1984 C   0  0  0  0  0  0  0  0  0  0  0  0
    0.9467    0.5850    0.6324 H   0  0  0  0  0  0  0  0  0  0  0  0
    0.6800    1.1508   -1.0179 H   0  0  0  0  0  0  0  0  0  0  0  0
    2.2632    0.4485   -0.5352 H   0  0  0  0  0  0  0  0  0  0  0  0
    0.3241    0.5124   -3.0916 H   0  0  0  0  0  0  0  0  0  0  0  0
   -0.2163   -0.9211   -3.9678 H   0  0  0  0  0  0  0  0  0  0  0  0
   -1.0952   -0.3600   -2.5258 H   0  0  0  0  0  0  0  0  0  0  0  0
    2.8860   -2.0442   -2.1579 H   0  0  0  0  0  0  0  0  0  0  0  0
    2.2030   -1.6194   -3.7177 H   0  0  0  0  0  0  0  0  0  0  0  0
    2.6634   -0.3578   -2.5717 H   0  0  0  0  0  0  0  0  0  0  0  0
   -0.8936   -2.7278   -2.1807 H   0  0  0  0  0  0  0  0  0  0  0  0
    0.5160   -3.3141   -3.0476 H   0  0  0  0  0  0  0  0  0  0  0  0
    2.6016   -2.2405   -0.0495 H   0  0  0  0  0  0  0  0  0  0  0  0
    2.5441   -3.4162    1.2570 H   0  0  0  0  0  0  0  0  0  0  0  0
    4.8133   -1.3603    0.2714 H   0  0  0  0  0  0  0  0  0  0  0  0
    7.2481   -1.6990    0.1212 H   0  0  0  0  0  0  0  0  0  0  0  0
    6.6665   -5.9454   -0.2137 H   0  0  0  0  0  0  0  0  0  0  0  0
    4.1809   -6.4403   -1.0703 H   0  0  0  0  0  0  0  0  0  0  0  0
    3.7383   -7.6445    2.7317 H   0  0  0  0  0  0  0  0  0  0  0  0
    3.7783   -4.1632    3.0707 H   0  0  0  0  0  0  0  0  0  0  0  0
    7.7745   -3.7412    3.8915 H   0  0  0  0  0  0  0  0  0  0  0  0
    9.3536   -5.7118    3.8540 H   0  0  0  0  0  0  0  0  0  0  0  0
    9.6897   -8.1519    3.7134 H   0  0  0  0  0  0  0  0  0  0  0  0
    7.7522   -9.6556    3.3400 H   0  0  0  0  0  0  0  0  0  0  0  0
    5.5287   -8.7329    2.9805 H   0  0  0  0  0  0  0  0  0  0  0  0
    1.9110   -5.7716    0.7688 H   0  0  0  0  0  0  0  0  0  0  0  0
    1.9639   -6.3444   -0.8979 H   0  0  0  0  0  0  0  0  0  0  0  0
  1  2  1  0  0  0  0
  1 34  1  0  0  0  0
  1 35  1  0  0  0  0
  1 36  1  0  0  0  0
  2  3  1  0  0  0  0
  3  4  1  0  0  0  0
  3  5  1  0  0  0  0
  3  6  1  0  0  0  0
  4 37  1  0  0  0  0
  4 38  1  0  0  0  0
  4 39  1  0  0  0  0
  5 40  1  0  0  0  0
  5 41  1  0  0  0  0
  5 42  1  0  0  0  0
  6  7  1  0  0  0  0
  6 43  1  0  0  0  0
  6 44  1  0  0  0  0
  7  8  2  0  0  0  0
  7  9  2  0  0  0  0
  7 10  1  0  0  0  0
 10 11  1  0  0  0  0
 10 33  1  0  0  0  0
 11 12  1  0  0  0  0
 11 45  1  0  0  0  0
 11 46  1  0  0  0  0
 12 13  1  0  0  0  0
 12 18  2  0  0  0  0
 13 14  2  0  0  0  0
 13 47  1  0  0  0  0
 14 15  1  0  0  0  0
 14 48  1  0  0  0  0
 15 16  1  0  0  0  0
 15 17  2  0  0  0  0
 17 18  1  0  0  0  0
 17 49  1  0  0  0  0
 18 19  1  0  0  0  0
 19 20  1  0  0  0  0
 19 33  1  0  0  0  0
 19 50  1  0  0  0  0
 20 21  2  0  0  0  0
 20 22  1  0  0  0  0
 22 23  1  0  0  0  0
 22 51  1  0  0  0  0
 23 24  1  0  0  0  0
 23 32  2  0  0  0  0
 24 25  2  0  0  0  0
 24 52  1  0  0  0  0
 25 26  1  0  0  0  0
 26 27  2  0  0  0  0
 26 53  1  0  0  0  0
 27 28  1  0  0  0  0
 27 32  1  0  0  0  0
 28 29  2  0  0  0  0
 28 54  1  0  0  0  0
 29 30  1  0  0  0  0
 29 55  1  0  0  0  0
 30 31  2  0  0  0  0
 30 56  1  0  0  0  0
 31 32  1  0  0  0  0
 31 57  1  0  0  0  0
 33 58  1  0  0  0  0
 33 59  1  0  0  0  0
M  END
$$$$
