
 OpenBabel06282217593D

 54 58  0  0  0  0  0  0  0  0999 V2000
   -1.3788    0.6774   -0.9101 N   0  0  0  0  0  0  0  0  0  0  0  0
   -0.4283    0.3462   -0.3417 C   0  0  0  0  0  0  0  0  0  0  0  0
    0.7894    0.0216    0.3667 C   0  0  0  0  0  0  0  0  0  0  0  0
    0.6727   -0.0617    1.8676 C   0  0  0  0  0  0  0  0  0  0  0  0
    0.1703   -1.7225    2.3451 S   0  0  0  0  0  0  0  0  0  0  0  0
    1.1448   -2.6730    1.8567 O   0  0  0  0  0  0  0  0  0  0  0  0
   -0.1660   -1.6903    3.7546 O   0  0  0  0  0  0  0  0  0  0  0  0
   -1.2776   -1.9917    1.5136 N   0  0  0  0  0  0  0  0  0  0  0  0
   -1.7150   -3.4219    1.5516 C   0  0  0  0  0  0  0  0  0  0  0  0
   -3.0160   -3.6563    0.8041 C   0  0  0  0  0  0  0  0  0  0  0  0
   -3.3311   -4.9657    0.3939 C   0  0  0  0  0  0  0  0  0  0  0  0
   -4.4614   -5.2086   -0.3814 C   0  0  0  0  0  0  0  0  0  0  0  0
   -5.2679   -4.1422   -0.7550 C   0  0  0  0  0  0  0  0  0  0  0  0
   -6.3332   -4.3726   -1.5352 F   0  0  0  0  0  0  0  0  0  0  0  0
   -5.0008   -2.8425   -0.3197 C   0  0  0  0  0  0  0  0  0  0  0  0
   -3.9026   -2.5892    0.5177 C   0  0  0  0  0  0  0  0  0  0  0  0
   -3.5615   -1.1830    0.9849 C   0  0  0  0  0  0  0  0  0  0  0  0
   -4.6416   -0.2954    1.5949 C   0  0  0  0  0  0  0  0  0  0  0  0
   -5.2155    0.5758    0.9386 O   0  0  0  0  0  0  0  0  0  0  0  0
   -4.8966   -0.3873    2.9762 N   0  0  0  0  0  0  0  0  0  0  0  0
   -5.8214   -1.4437    3.3016 C   0  0  0  0  0  0  0  0  0  0  0  0
   -5.3335   -2.7322    3.4775 C   0  0  0  0  0  0  0  0  0  0  0  0
   -5.9620   -3.8181    2.9907 N   0  0  0  0  0  0  0  0  0  0  0  0
   -7.0454   -3.5711    2.2112 C   0  0  0  0  0  0  0  0  0  0  0  0
   -7.6455   -2.3117    2.0554 C   0  0  0  0  0  0  0  0  0  0  0  0
   -8.6475   -2.0071    1.1167 C   0  0  0  0  0  0  0  0  0  0  0  0
   -9.2040   -0.7237    1.0572 C   0  0  0  0  0  0  0  0  0  0  0  0
   -8.8345    0.2451    1.9835 C   0  0  0  0  0  0  0  0  0  0  0  0
   -7.7939   -0.0217    2.8597 C   0  0  0  0  0  0  0  0  0  0  0  0
   -7.1236   -1.2625    2.8119 C   0  0  0  0  0  0  0  0  0  0  0  0
   -2.3982   -1.1366    1.9717 C   0  0  0  0  0  0  0  0  0  0  0  0
    1.8804   -0.7262   -0.3774 C   0  0  0  0  0  0  0  0  0  0  0  0
    2.0183    0.7497   -0.1745 C   0  0  0  0  0  0  0  0  0  0  0  0
    1.6302    0.1153    2.3676 H   0  0  0  0  0  0  0  0  0  0  0  0
   -0.0478    0.6558    2.2729 H   0  0  0  0  0  0  0  0  0  0  0  0
   -0.9382   -4.0347    1.0801 H   0  0  0  0  0  0  0  0  0  0  0  0
   -1.8509   -3.7499    2.5896 H   0  0  0  0  0  0  0  0  0  0  0  0
   -2.6843   -5.7992    0.6627 H   0  0  0  0  0  0  0  0  0  0  0  0
   -4.7041   -6.2148   -0.7093 H   0  0  0  0  0  0  0  0  0  0  0  0
   -5.6582   -2.0409   -0.6463 H   0  0  0  0  0  0  0  0  0  0  0  0
   -3.2497   -0.6714    0.0681 H   0  0  0  0  0  0  0  0  0  0  0  0
   -5.3685    0.4972    3.1576 H   0  0  0  0  0  0  0  0  0  0  0  0
   -4.3520   -2.9163    3.9041 H   0  0  0  0  0  0  0  0  0  0  0  0
   -7.4006   -4.4331    1.6533 H   0  0  0  0  0  0  0  0  0  0  0  0
   -8.9441   -2.7475    0.3779 H   0  0  0  0  0  0  0  0  0  0  0  0
   -9.9248   -0.4754    0.2834 H   0  0  0  0  0  0  0  0  0  0  0  0
   -9.2998    1.2269    1.9805 H   0  0  0  0  0  0  0  0  0  0  0  0
   -7.4692    0.7589    3.5452 H   0  0  0  0  0  0  0  0  0  0  0  0
   -2.6942   -1.4775    2.9705 H   0  0  0  0  0  0  0  0  0  0  0  0
   -2.0807   -0.0949    2.0753 H   0  0  0  0  0  0  0  0  0  0  0  0
    2.5527   -1.3737    0.1748 H   0  0  0  0  0  0  0  0  0  0  0  0
    1.6581   -1.0952   -1.3743 H   0  0  0  0  0  0  0  0  0  0  0  0
    1.9084    1.3903   -1.0453 H   0  0  0  0  0  0  0  0  0  0  0  0
    2.7697    1.1014    0.5235 H   0  0  0  0  0  0  0  0  0  0  0  0
  1  2  3  0  0  0  0
  2  3  1  0  0  0  0
  3  4  1  0  0  0  0
  3 32  1  0  0  0  0
  3 33  1  0  0  0  0
  4  5  1  0  0  0  0
  4 34  1  0  0  0  0
  4 35  1  0  0  0  0
  5  6  2  0  0  0  0
  5  7  2  0  0  0  0
  5  8  1  0  0  0  0
  8  9  1  0  0  0  0
  8 31  1  0  0  0  0
  9 10  1  0  0  0  0
  9 36  1  0  0  0  0
  9 37  1  0  0  0  0
 10 11  1  0  0  0  0
 10 16  2  0  0  0  0
 11 12  2  0  0  0  0
 11 38  1  0  0  0  0
 12 13  1  0  0  0  0
 12 39  1  0  0  0  0
 13 14  1  0  0  0  0
 13 15  2  0  0  0  0
 15 16  1  0  0  0  0
 15 40  1  0  0  0  0
 16 17  1  0  0  0  0
 17 18  1  0  0  0  0
 17 31  1  0  0  0  0
 17 41  1  0  0  0  0
 18 19  2  0  0  0  0
 18 20  1  0  0  0  0
 20 21  1  0  0  0  0
 20 42  1  0  0  0  0
 21 22  1  0  0  0  0
 21 30  2  0  0  0  0
 22 23  2  0  0  0  0
 22 43  1  0  0  0  0
 23 24  1  0  0  0  0
 24 25  2  0  0  0  0
 24 44  1  0  0  0  0
 25 26  1  0  0  0  0
 25 30  1  0  0  0  0
 26 27  2  0  0  0  0
 26 45  1  0  0  0  0
 27 28  1  0  0  0  0
 27 46  1  0  0  0  0
 28 29  2  0  0  0  0
 28 47  1  0  0  0  0
 29 30  1  0  0  0  0
 29 48  1  0  0  0  0
 31 49  1  0  0  0  0
 31 50  1  0  0  0  0
 32 33  1  0  0  0  0
 32 51  1  0  0  0  0
 32 52  1  0  0  0  0
 33 53  1  0  0  0  0
 33 54  1  0  0  0  0
M  END
$$$$
