
 OpenBabel06282217593D

 61 64  0  0  0  0  0  0  0  0999 V2000
    1.9115    0.3202   -0.1753 C   0  0  0  0  0  0  0  0  0  0  0  0
    1.0114    0.6445   -1.3681 C   0  0  0  0  0  0  0  0  0  0  0  0
    1.4720   -0.2794   -2.5378 C   0  0  0  0  0  0  0  0  0  0  0  0
   -0.4629    0.2858   -1.1549 C   0  0  0  0  0  0  0  0  0  0  0  0
   -1.4470    1.1390    0.0477 S   0  0  0  0  0  0  0  0  0  0  0  0
   -1.3190    2.5603   -0.1663 O   0  0  0  0  0  0  0  0  0  0  0  0
   -2.7543    0.5201    0.0304 O   0  0  0  0  0  0  0  0  0  0  0  0
   -0.7597    0.8054    1.5592 N   0  0  0  0  0  0  0  0  0  0  0  0
   -1.0649    1.8545    2.5601 C   0  0  0  0  0  0  0  0  0  0  0  0
   -0.8824    1.5053    4.0111 C   0  0  0  0  0  0  0  0  0  0  0  0
   -0.6915    2.5546    4.9323 C   0  0  0  0  0  0  0  0  0  0  0  0
   -0.5460    2.2975    6.2941 C   0  0  0  0  0  0  0  0  0  0  0  0
   -0.5683    0.9849    6.7427 C   0  0  0  0  0  0  0  0  0  0  0  0
   -0.3874    0.6492    8.4199 Cl  0  0  0  0  0  0  0  0  0  0  0  0
   -0.7453   -0.0641    5.8403 C   0  0  0  0  0  0  0  0  0  0  0  0
   -0.9612    0.1840    4.4689 C   0  0  0  0  0  0  0  0  0  0  0  0
   -1.1621   -0.9482    3.4745 C   0  0  0  0  0  0  0  0  0  0  0  0
   -2.3730   -2.1449    3.3741 C   0  0  0  0  0  0  0  0  0  0  0  0
   -1.8444   -3.1083    2.7425 O   0  0  0  0  0  0  0  0  0  0  0  0
   -4.1835   -1.9494    4.0860 N   0  0  0  0  0  0  0  0  0  0  0  0
   -4.5437   -0.8617    5.0186 C   0  0  0  0  0  0  0  0  0  0  0  0
   -5.3430    0.2407    4.6297 C   0  0  0  0  0  0  0  0  0  0  0  0
   -5.2971    0.9812    3.4665 N   0  0  0  0  0  0  0  0  0  0  0  0
   -4.4941    0.5278    2.5014 C   0  0  0  0  0  0  0  0  0  0  0  0
   -3.7831   -0.5875    2.8251 C   0  0  0  0  0  0  0  0  0  0  0  0
   -4.1125   -2.1032    1.9871 C   0  0  0  0  0  0  0  0  0  0  0  0
   -3.9936   -3.6797    2.8001 C   0  0  0  0  0  0  0  0  0  0  0  0
   -3.3813   -3.8698    4.4584 C   0  0  0  0  0  0  0  0  0  0  0  0
   -2.9046   -2.4747    5.4046 C   0  0  0  0  0  0  0  0  0  0  0  0
   -3.3727   -0.9025    4.5937 C   0  0  0  0  0  0  0  0  0  0  0  0
   -0.7143   -0.6136    2.0213 C   0  0  0  0  0  0  0  0  0  0  0  0
    1.2730    2.3587   -1.9605 S   0  0  0  0  0  0  0  0  0  0  0  0
    1.2904    3.4916   -0.5789 C   0  0  0  0  0  0  0  0  0  0  0  0
    2.6214    2.4022   -2.5049 O   0  0  0  0  0  0  0  0  0  0  0  0
    0.1558    2.6968   -2.8217 O   0  0  0  0  0  0  0  0  0  0  0  0
    1.8182   -0.7352    0.1047 H   0  0  0  0  0  0  0  0  0  0  0  0
    1.6826    0.9179    0.7070 H   0  0  0  0  0  0  0  0  0  0  0  0
    2.9654    0.5002   -0.4150 H   0  0  0  0  0  0  0  0  0  0  0  0
    1.2954   -1.3359   -2.3046 H   0  0  0  0  0  0  0  0  0  0  0  0
    0.9288   -0.0475   -3.4622 H   0  0  0  0  0  0  0  0  0  0  0  0
    2.5403   -0.1661   -2.7515 H   0  0  0  0  0  0  0  0  0  0  0  0
   -1.0147    0.4379   -2.0932 H   0  0  0  0  0  0  0  0  0  0  0  0
   -0.5663   -0.7808   -0.9208 H   0  0  0  0  0  0  0  0  0  0  0  0
   -0.3823    2.6866    2.3375 H   0  0  0  0  0  0  0  0  0  0  0  0
   -2.0903    2.2192    2.4367 H   0  0  0  0  0  0  0  0  0  0  0  0
   -0.6600    3.5877    4.5880 H   0  0  0  0  0  0  0  0  0  0  0  0
   -0.4104    3.1206    6.9905 H   0  0  0  0  0  0  0  0  0  0  0  0
   -0.7245   -1.0838    6.2158 H   0  0  0  0  0  0  0  0  0  0  0  0
   -0.3452   -1.6175    3.8129 H   0  0  0  0  0  0  0  0  0  0  0  0
   -4.9990   -2.5600    3.9661 H   0  0  0  0  0  0  0  0  0  0  0  0
   -6.0745    0.6175    5.3450 H   0  0  0  0  0  0  0  0  0  0  0  0
   -4.7217    0.8493    1.4948 H   0  0  0  0  0  0  0  0  0  0  0  0
   -4.5384   -2.0674    0.9852 H   0  0  0  0  0  0  0  0  0  0  0  0
   -4.2486   -4.5758    2.2349 H   0  0  0  0  0  0  0  0  0  0  0  0
   -3.3316   -4.8655    4.8927 H   0  0  0  0  0  0  0  0  0  0  0  0
   -2.8278   -2.5551    6.4868 H   0  0  0  0  0  0  0  0  0  0  0  0
   -1.2347   -1.2488    1.2979 H   0  0  0  0  0  0  0  0  0  0  0  0
    0.3420   -0.9021    1.9384 H   0  0  0  0  0  0  0  0  0  0  0  0
    1.2914    2.9576    0.3673 H   0  0  0  0  0  0  0  0  0  0  0  0
    2.1996    4.0946   -0.6459 H   0  0  0  0  0  0  0  0  0  0  0  0
    0.4304    4.1590   -0.6477 H   0  0  0  0  0  0  0  0  0  0  0  0
  1  2  1  0  0  0  0
  1 36  1  0  0  0  0
  1 37  1  0  0  0  0
  1 38  1  0  0  0  0
  2  3  1  0  0  0  0
  2  4  1  0  0  0  0
  2 32  1  0  0  0  0
  3 39  1  0  0  0  0
  3 40  1  0  0  0  0
  3 41  1  0  0  0  0
  4  5  1  0  0  0  0
  4 42  1  0  0  0  0
  4 43  1  0  0  0  0
  5  6  2  0  0  0  0
  5  7  2  0  0  0  0
  5  8  1  0  0  0  0
  8  9  1  0  0  0  0
  8 31  1  0  0  0  0
  9 10  1  0  0  0  0
  9 44  1  0  0  0  0
  9 45  1  0  0  0  0
 10 11  1  0  0  0  0
 10 16  2  0  0  0  0
 11 12  2  0  0  0  0
 11 46  1  0  0  0  0
 12 13  1  0  0  0  0
 12 47  1  0  0  0  0
 13 14  1  0  0  0  0
 13 15  2  0  0  0  0
 15 16  1  0  0  0  0
 15 48  1  0  0  0  0
 16 17  1  0  0  0  0
 17 18  1  0  0  0  0
 17 31  1  0  0  0  0
 17 49  1  0  0  0  0
 18 19  2  0  0  0  0
 18 20  1  0  0  0  0
 20 21  1  0  0  0  0
 20 50  1  0  0  0  0
 21 22  1  0  0  0  0
 21 30  2  0  0  0  0
 22 23  2  0  0  0  0
 22 51  1  0  0  0  0
 23 24  1  0  0  0  0
 24 25  2  0  0  0  0
 24 52  1  0  0  0  0
 25 26  1  0  0  0  0
 25 30  1  0  0  0  0
 26 27  2  0  0  0  0
 26 53  1  0  0  0  0
 27 28  1  0  0  0  0
 27 54  1  0  0  0  0
 28 29  2  0  0  0  0
 28 55  1  0  0  0  0
 29 30  1  0  0  0  0
 29 56  1  0  0  0  0
 31 57  1  0  0  0  0
 31 58  1  0  0  0  0
 32 33  1  0  0  0  0
 32 34  2  0  0  0  0
 32 35  2  0  0  0  0
 33 59  1  0  0  0  0
 33 60  1  0  0  0  0
 33 61  1  0  0  0  0
M  END
$$$$
