
 OpenBabel06282217593D

 56 60  0  0  0  0  0  0  0  0999 V2000
    1.5827   -0.7969    1.1355 O   0  0  0  0  0  0  0  0  0  0  0  0
    2.3999    0.0831    0.8565 C   0  0  0  0  0  0  0  0  0  0  0  0
    3.0058    0.8003    1.8883 N   0  0  0  0  0  0  0  0  0  0  0  0
    4.3859    0.5334    2.1558 C   0  0  0  0  0  0  0  0  0  0  0  0
    4.7985   -0.7858    2.2480 C   0  0  0  0  0  0  0  0  0  0  0  0
    6.0818   -1.1771    2.3626 N   0  0  0  0  0  0  0  0  0  0  0  0
    7.0137   -0.2084    2.4001 C   0  0  0  0  0  0  0  0  0  0  0  0
    6.7197    1.1481    2.4043 C   0  0  0  0  0  0  0  0  0  0  0  0
    7.7496    2.0966    2.4699 C   0  0  0  0  0  0  0  0  0  0  0  0
    7.4478    3.4521    2.5180 C   0  0  0  0  0  0  0  0  0  0  0  0
    6.1179    3.8633    2.5032 C   0  0  0  0  0  0  0  0  0  0  0  0
    5.0845    2.9231    2.4009 C   0  0  0  0  0  0  0  0  0  0  0  0
    5.3605    1.5428    2.3260 C   0  0  0  0  0  0  0  0  0  0  0  0
    2.7261    0.4271   -0.6090 C   0  0  0  0  0  0  0  0  0  0  0  0
    3.7239   -0.5469   -1.2715 C   0  0  0  0  0  0  0  0  0  0  0  0
    5.1132   -0.2955   -0.8099 N   0  0  0  0  0  0  0  0  0  0  0  0
    6.3436   -1.3491   -1.3017 S   0  0  0  0  0  0  0  0  0  0  0  0
    6.3972   -1.2146   -2.7474 O   0  0  0  0  0  0  0  0  0  0  0  0
    7.5254   -1.0234   -0.5311 O   0  0  0  0  0  0  0  0  0  0  0  0
    5.9638   -3.0749   -1.0188 C   0  0  0  0  0  0  0  0  0  0  0  0
    5.2625   -3.6355    0.2148 C   0  0  0  0  0  0  0  0  0  0  0  0
    5.2204   -5.1967   -0.0206 C   0  0  0  0  0  0  0  0  0  0  0  0
    5.0274   -5.4746    1.7045 S   0  0  0  0  0  0  0  0  0  0  0  0
    5.8784   -6.5434    2.1837 O   0  0  0  0  0  0  0  0  0  0  0  0
    3.6485   -5.3135    2.1097 O   0  0  0  0  0  0  0  0  0  0  0  0
    5.8938   -3.9250    1.6332 C   0  0  0  0  0  0  0  0  0  0  0  0
    5.5218    1.1344   -1.1592 C   0  0  0  0  0  0  0  0  0  0  0  0
    4.4691    2.2081   -0.9419 C   0  0  0  0  0  0  0  0  0  0  0  0
    4.8375    3.5646   -0.9209 C   0  0  0  0  0  0  0  0  0  0  0  0
    3.8841    4.5652   -0.6977 C   0  0  0  0  0  0  0  0  0  0  0  0
    2.5456    4.2229   -0.5404 C   0  0  0  0  0  0  0  0  0  0  0  0
    1.3730    5.4434   -0.2338 Cl  0  0  0  0  0  0  0  0  0  0  0  0
    2.1567    2.8883   -0.5881 C   0  0  0  0  0  0  0  0  0  0  0  0
    3.1203    1.8769   -0.7637 C   0  0  0  0  0  0  0  0  0  0  0  0
    2.4790    0.5266    2.7169 H   0  0  0  0  0  0  0  0  0  0  0  0
    4.0756   -1.5961    2.1980 H   0  0  0  0  0  0  0  0  0  0  0  0
    8.0384   -0.5717    2.4200 H   0  0  0  0  0  0  0  0  0  0  0  0
    8.7915    1.7806    2.4857 H   0  0  0  0  0  0  0  0  0  0  0  0
    8.2510    4.1822    2.5763 H   0  0  0  0  0  0  0  0  0  0  0  0
    5.8820    4.9228    2.5586 H   0  0  0  0  0  0  0  0  0  0  0  0
    4.0564    3.2764    2.3685 H   0  0  0  0  0  0  0  0  0  0  0  0
    1.7759    0.3041   -1.1511 H   0  0  0  0  0  0  0  0  0  0  0  0
    3.6848   -0.4218   -2.3624 H   0  0  0  0  0  0  0  0  0  0  0  0
    3.4358   -1.5760   -1.0432 H   0  0  0  0  0  0  0  0  0  0  0  0
    5.3745   -3.3639   -1.8986 H   0  0  0  0  0  0  0  0  0  0  0  0
    6.9419   -3.5645   -1.1256 H   0  0  0  0  0  0  0  0  0  0  0  0
    4.2521   -3.2144    0.3022 H   0  0  0  0  0  0  0  0  0  0  0  0
    4.3950   -5.5652   -0.6326 H   0  0  0  0  0  0  0  0  0  0  0  0
    6.1572   -5.6402   -0.3822 H   0  0  0  0  0  0  0  0  0  0  0  0
    6.9798   -4.0379    1.6675 H   0  0  0  0  0  0  0  0  0  0  0  0
    5.5498   -3.3496    2.4871 H   0  0  0  0  0  0  0  0  0  0  0  0
    6.4024    1.3924   -0.5614 H   0  0  0  0  0  0  0  0  0  0  0  0
    5.7933    1.1869   -2.2212 H   0  0  0  0  0  0  0  0  0  0  0  0
    5.8827    3.8501   -1.0265 H   0  0  0  0  0  0  0  0  0  0  0  0
    4.1949    5.6044   -0.6288 H   0  0  0  0  0  0  0  0  0  0  0  0
    1.1099    2.6290   -0.4395 H   0  0  0  0  0  0  0  0  0  0  0  0
  1  2  2  0  0  0  0
  2  3  1  0  0  0  0
  2 14  1  0  0  0  0
  3  4  1  0  0  0  0
  3 35  1  0  0  0  0
  4  5  1  0  0  0  0
  4 13  2  0  0  0  0
  5  6  2  0  0  0  0
  5 36  1  0  0  0  0
  6  7  1  0  0  0  0
  7  8  2  0  0  0  0
  7 37  1  0  0  0  0
  8  9  1  0  0  0  0
  8 13  1  0  0  0  0
  9 10  2  0  0  0  0
  9 38  1  0  0  0  0
 10 11  1  0  0  0  0
 10 39  1  0  0  0  0
 11 12  2  0  0  0  0
 11 40  1  0  0  0  0
 12 13  1  0  0  0  0
 12 41  1  0  0  0  0
 14 15  1  0  0  0  0
 14 34  1  0  0  0  0
 14 42  1  0  0  0  0
 15 16  1  0  0  0  0
 15 43  1  0  0  0  0
 15 44  1  0  0  0  0
 16 17  1  0  0  0  0
 16 27  1  0  0  0  0
 17 18  2  0  0  0  0
 17 19  2  0  0  0  0
 17 20  1  0  0  0  0
 20 21  1  0  0  0  0
 20 45  1  0  0  0  0
 20 46  1  0  0  0  0
 21 22  1  0  0  0  0
 21 26  1  0  0  0  0
 21 47  1  0  0  0  0
 22 23  1  0  0  0  0
 22 48  1  0  0  0  0
 22 49  1  0  0  0  0
 23 24  2  0  0  0  0
 23 25  2  0  0  0  0
 23 26  1  0  0  0  0
 26 50  1  0  0  0  0
 26 51  1  0  0  0  0
 27 28  1  0  0  0  0
 27 52  1  0  0  0  0
 27 53  1  0  0  0  0
 28 29  1  0  0  0  0
 28 34  2  0  0  0  0
 29 30  2  0  0  0  0
 29 54  1  0  0  0  0
 30 31  1  0  0  0  0
 30 55  1  0  0  0  0
 31 32  1  0  0  0  0
 31 33  2  0  0  0  0
 33 34  1  0  0  0  0
 33 56  1  0  0  0  0
M  END
$$$$
