
 OpenBabel06282217593D

 57 62  0  0  0  0  0  0  0  0999 V2000
    1.0720   -0.1366    0.1352 O   0  0  0  0  0  0  0  0  0  0  0  0
    2.2999   -0.0437    0.2147 C   0  0  0  0  0  0  0  0  0  0  0  0
    3.0403   -1.0006   -0.4451 N   0  0  0  0  0  0  0  0  0  0  0  0
    4.4420   -1.1312   -0.5135 C   0  0  0  0  0  0  0  0  0  0  0  0
    5.0333   -1.1981   -1.7728 C   0  0  0  0  0  0  0  0  0  0  0  0
    6.3654   -1.1675   -1.9850 N   0  0  0  0  0  0  0  0  0  0  0  0
    7.1489   -1.0791   -0.8864 C   0  0  0  0  0  0  0  0  0  0  0  0
    6.6761   -1.0877    0.4279 C   0  0  0  0  0  0  0  0  0  0  0  0
    7.5425   -1.0198    1.5346 C   0  0  0  0  0  0  0  0  0  0  0  0
    7.0443   -1.1016    2.8345 C   0  0  0  0  0  0  0  0  0  0  0  0
    5.6849   -1.2981    3.0417 C   0  0  0  0  0  0  0  0  0  0  0  0
    4.8195   -1.3588    1.9487 C   0  0  0  0  0  0  0  0  0  0  0  0
    5.2827   -1.1818    0.6238 C   0  0  0  0  0  0  0  0  0  0  0  0
    2.9846    1.1407    0.9163 C   0  0  0  0  0  0  0  0  0  0  0  0
    2.5834    1.2019    2.3973 C   0  0  0  0  0  0  0  0  0  0  0  0
    1.2743    1.8739    2.6142 N   0  0  0  0  0  0  0  0  0  0  0  0
    0.6654    1.7895    4.2060 S   0  0  0  0  0  0  0  0  0  0  0  0
    1.7446    2.2161    5.0758 O   0  0  0  0  0  0  0  0  0  0  0  0
   -0.6039    2.4863    4.2315 O   0  0  0  0  0  0  0  0  0  0  0  0
    0.3822    0.0397    4.5086 C   0  0  0  0  0  0  0  0  0  0  0  0
   -0.5860   -0.4758    3.4940 C   0  0  0  0  0  0  0  0  0  0  0  0
   -2.0587   -0.7332    3.8702 C   0  0  0  0  0  0  0  0  0  0  0  0
   -1.1155   -1.8265    3.6735 C   0  0  0  0  0  0  0  0  0  0  0  0
   -1.0968   -3.0705    2.9135 C   0  0  0  0  0  0  0  0  0  0  0  0
   -0.7257   -3.0294    4.4011 C   0  0  0  0  0  0  0  0  0  0  0  0
    1.2930    3.2778    2.1171 C   0  0  0  0  0  0  0  0  0  0  0  0
    1.9635    3.4629    0.7716 C   0  0  0  0  0  0  0  0  0  0  0  0
    1.8414    4.7014    0.1180 C   0  0  0  0  0  0  0  0  0  0  0  0
    2.4787    4.9315   -1.1022 C   0  0  0  0  0  0  0  0  0  0  0  0
    3.2420    3.9235   -1.6804 C   0  0  0  0  0  0  0  0  0  0  0  0
    4.0367    4.2039   -3.1803 Cl  0  0  0  0  0  0  0  0  0  0  0  0
    3.3836    2.6926   -1.0424 C   0  0  0  0  0  0  0  0  0  0  0  0
    2.7548    2.4553    0.1936 C   0  0  0  0  0  0  0  0  0  0  0  0
    2.4864   -1.4515   -1.1673 H   0  0  0  0  0  0  0  0  0  0  0  0
    4.4362   -1.2170   -2.6808 H   0  0  0  0  0  0  0  0  0  0  0  0
    8.2138   -1.0205   -1.1001 H   0  0  0  0  0  0  0  0  0  0  0  0
    8.6153   -0.9092    1.3890 H   0  0  0  0  0  0  0  0  0  0  0  0
    7.7217   -1.0426    3.6831 H   0  0  0  0  0  0  0  0  0  0  0  0
    5.2980   -1.4112    4.0517 H   0  0  0  0  0  0  0  0  0  0  0  0
    3.7689   -1.5690    2.1350 H   0  0  0  0  0  0  0  0  0  0  0  0
    4.0671    1.0089    0.9061 H   0  0  0  0  0  0  0  0  0  0  0  0
    3.3563    1.7453    2.9563 H   0  0  0  0  0  0  0  0  0  0  0  0
    2.5367    0.1875    2.7975 H   0  0  0  0  0  0  0  0  0  0  0  0
    1.3406   -0.4825    4.4650 H   0  0  0  0  0  0  0  0  0  0  0  0
   -0.0053   -0.0403    5.5298 H   0  0  0  0  0  0  0  0  0  0  0  0
   -0.3677   -0.1721    2.4765 H   0  0  0  0  0  0  0  0  0  0  0  0
   -2.3822   -0.5004    4.8774 H   0  0  0  0  0  0  0  0  0  0  0  0
   -2.8052   -0.5496    3.1065 H   0  0  0  0  0  0  0  0  0  0  0  0
   -2.0431   -3.5233    2.6443 H   0  0  0  0  0  0  0  0  0  0  0  0
   -0.3003   -3.2212    2.1957 H   0  0  0  0  0  0  0  0  0  0  0  0
    0.3163   -3.1711    4.6584 H   0  0  0  0  0  0  0  0  0  0  0  0
   -1.4293   -3.4568    5.1052 H   0  0  0  0  0  0  0  0  0  0  0  0
    0.2566    3.6234    2.0253 H   0  0  0  0  0  0  0  0  0  0  0  0
    1.8206    3.9147    2.8385 H   0  0  0  0  0  0  0  0  0  0  0  0
    1.2524    5.5005    0.5655 H   0  0  0  0  0  0  0  0  0  0  0  0
    2.3796    5.8975   -1.5899 H   0  0  0  0  0  0  0  0  0  0  0  0
    4.0041    1.9259   -1.5005 H   0  0  0  0  0  0  0  0  0  0  0  0
  1  2  2  0  0  0  0
  2  3  1  0  0  0  0
  2 14  1  0  0  0  0
  3  4  1  0  0  0  0
  3 34  1  0  0  0  0
  4  5  1  0  0  0  0
  4 13  2  0  0  0  0
  5  6  2  0  0  0  0
  5 35  1  0  0  0  0
  6  7  1  0  0  0  0
  7  8  2  0  0  0  0
  7 36  1  0  0  0  0
  8  9  1  0  0  0  0
  8 13  1  0  0  0  0
  9 10  2  0  0  0  0
  9 37  1  0  0  0  0
 10 11  1  0  0  0  0
 10 38  1  0  0  0  0
 11 12  2  0  0  0  0
 11 39  1  0  0  0  0
 12 13  1  0  0  0  0
 12 40  1  0  0  0  0
 14 15  1  0  0  0  0
 14 33  1  0  0  0  0
 14 41  1  0  0  0  0
 15 16  1  0  0  0  0
 15 42  1  0  0  0  0
 15 43  1  0  0  0  0
 16 17  1  0  0  0  0
 16 26  1  0  0  0  0
 17 18  2  0  0  0  0
 17 19  2  0  0  0  0
 17 20  1  0  0  0  0
 20 21  1  0  0  0  0
 20 44  1  0  0  0  0
 20 45  1  0  0  0  0
 21 22  1  0  0  0  0
 21 23  1  0  0  0  0
 21 46  1  0  0  0  0
 22 23  1  0  0  0  0
 22 47  1  0  0  0  0
 22 48  1  0  0  0  0
 23 24  1  0  0  0  0
 23 25  1  0  0  0  0
 24 25  1  0  0  0  0
 24 49  1  0  0  0  0
 24 50  1  0  0  0  0
 25 51  1  0  0  0  0
 25 52  1  0  0  0  0
 26 27  1  0  0  0  0
 26 53  1  0  0  0  0
 26 54  1  0  0  0  0
 27 28  1  0  0  0  0
 27 33  2  0  0  0  0
 28 29  2  0  0  0  0
 28 55  1  0  0  0  0
 29 30  1  0  0  0  0
 29 56  1  0  0  0  0
 30 31  1  0  0  0  0
 30 32  2  0  0  0  0
 32 33  1  0  0  0  0
 32 57  1  0  0  0  0
M  END
$$$$
