
 OpenBabel06282217593D

 53 57  0  0  0  0  0  0  0  0999 V2000
    1.2272   -0.2289   -0.1324 O   0  0  0  0  0  0  0  0  0  0  0  0
    2.4584   -0.1761   -0.2044 C   0  0  0  0  0  0  0  0  0  0  0  0
    3.0287    1.0445   -0.5203 N   0  0  0  0  0  0  0  0  0  0  0  0
    4.4078    1.3343   -0.6204 C   0  0  0  0  0  0  0  0  0  0  0  0
    4.9516    2.2922    0.2323 C   0  0  0  0  0  0  0  0  0  0  0  0
    6.2762    2.4848    0.3994 N   0  0  0  0  0  0  0  0  0  0  0  0
    7.0975    1.7043   -0.3393 C   0  0  0  0  0  0  0  0  0  0  0  0
    6.6661    0.7926   -1.3061 C   0  0  0  0  0  0  0  0  0  0  0  0
    7.5653    0.0364   -2.0791 C   0  0  0  0  0  0  0  0  0  0  0  0
    7.0998   -0.8120   -3.0838 C   0  0  0  0  0  0  0  0  0  0  0  0
    5.7367   -0.8986   -3.3427 C   0  0  0  0  0  0  0  0  0  0  0  0
    4.8351   -0.1752   -2.5621 C   0  0  0  0  0  0  0  0  0  0  0  0
    5.2767    0.6456   -1.4964 C   0  0  0  0  0  0  0  0  0  0  0  0
    3.3369   -1.3933    0.1411 C   0  0  0  0  0  0  0  0  0  0  0  0
    2.8436   -2.6397   -0.6300 C   0  0  0  0  0  0  0  0  0  0  0  0
    2.3151   -3.7528    0.2171 N   0  0  0  0  0  0  0  0  0  0  0  0
    1.9654   -5.2059   -0.6258 S   0  0  0  0  0  0  0  0  0  0  0  0
    3.2003   -5.6067   -1.2754 O   0  0  0  0  0  0  0  0  0  0  0  0
    1.3114   -6.0998    0.3034 O   0  0  0  0  0  0  0  0  0  0  0  0
    0.8050   -4.7548   -1.9153 C   0  0  0  0  0  0  0  0  0  0  0  0
   -0.4135   -4.1491   -1.2962 C   0  0  0  0  0  0  0  0  0  0  0  0
   -1.1683   -3.0596   -2.0399 C   0  0  0  0  0  0  0  0  0  0  0  0
   -1.7191   -4.4289   -1.9455 C   0  0  0  0  0  0  0  0  0  0  0  0
   -1.7939   -5.2164   -3.0710 F   0  0  0  0  0  0  0  0  0  0  0  0
   -2.8407   -4.6750   -1.1927 F   0  0  0  0  0  0  0  0  0  0  0  0
    3.2321   -4.0631    1.3553 C   0  0  0  0  0  0  0  0  0  0  0  0
    3.6125   -2.8621    2.1810 C   0  0  0  0  0  0  0  0  0  0  0  0
    4.0892   -3.0545    3.4913 C   0  0  0  0  0  0  0  0  0  0  0  0
    4.5075   -1.9742    4.2669 C   0  0  0  0  0  0  0  0  0  0  0  0
    4.4319   -0.6924    3.7432 C   0  0  0  0  0  0  0  0  0  0  0  0
    4.9504    0.6536    4.6811 Cl  0  0  0  0  0  0  0  0  0  0  0  0
    3.9742   -0.4914    2.4417 C   0  0  0  0  0  0  0  0  0  0  0  0
    3.5881   -1.5740    1.6303 C   0  0  0  0  0  0  0  0  0  0  0  0
    2.3959    1.8101   -0.3075 H   0  0  0  0  0  0  0  0  0  0  0  0
    4.3273    2.8888    0.8924 H   0  0  0  0  0  0  0  0  0  0  0  0
    8.1562    1.8516   -0.1374 H   0  0  0  0  0  0  0  0  0  0  0  0
    8.6376    0.1111   -1.9082 H   0  0  0  0  0  0  0  0  0  0  0  0
    7.8040   -1.3880   -3.6794 H   0  0  0  0  0  0  0  0  0  0  0  0
    5.3747   -1.5279   -4.1522 H   0  0  0  0  0  0  0  0  0  0  0  0
    3.7749   -0.2442   -2.7979 H   0  0  0  0  0  0  0  0  0  0  0  0
    4.3411   -1.2312   -0.2449 H   0  0  0  0  0  0  0  0  0  0  0  0
    3.6862   -3.0268   -1.2181 H   0  0  0  0  0  0  0  0  0  0  0  0
    2.0717   -2.3501   -1.3511 H   0  0  0  0  0  0  0  0  0  0  0  0
    1.3097   -4.0830   -2.6141 H   0  0  0  0  0  0  0  0  0  0  0  0
    0.5708   -5.6875   -2.4398 H   0  0  0  0  0  0  0  0  0  0  0  0
   -0.4200   -4.1145   -0.2135 H   0  0  0  0  0  0  0  0  0  0  0  0
   -1.6529   -2.2877   -1.4558 H   0  0  0  0  0  0  0  0  0  0  0  0
   -0.8141   -2.7384   -3.0108 H   0  0  0  0  0  0  0  0  0  0  0  0
    2.7293   -4.7774    2.0182 H   0  0  0  0  0  0  0  0  0  0  0  0
    4.1575   -4.5167    0.9795 H   0  0  0  0  0  0  0  0  0  0  0  0
    4.1575   -4.0583    3.9073 H   0  0  0  0  0  0  0  0  0  0  0  0
    4.8954   -2.1401    5.2679 H   0  0  0  0  0  0  0  0  0  0  0  0
    3.9592    0.5231    2.0640 H   0  0  0  0  0  0  0  0  0  0  0  0
  1  2  2  0  0  0  0
  2  3  1  0  0  0  0
  2 14  1  0  0  0  0
  3  4  1  0  0  0  0
  3 34  1  0  0  0  0
  4  5  1  0  0  0  0
  4 13  2  0  0  0  0
  5  6  2  0  0  0  0
  5 35  1  0  0  0  0
  6  7  1  0  0  0  0
  7  8  2  0  0  0  0
  7 36  1  0  0  0  0
  8  9  1  0  0  0  0
  8 13  1  0  0  0  0
  9 10  2  0  0  0  0
  9 37  1  0  0  0  0
 10 11  1  0  0  0  0
 10 38  1  0  0  0  0
 11 12  2  0  0  0  0
 11 39  1  0  0  0  0
 12 13  1  0  0  0  0
 12 40  1  0  0  0  0
 14 15  1  0  0  0  0
 14 33  1  0  0  0  0
 14 41  1  0  0  0  0
 15 16  1  0  0  0  0
 15 42  1  0  0  0  0
 15 43  1  0  0  0  0
 16 17  1  0  0  0  0
 16 26  1  0  0  0  0
 17 18  2  0  0  0  0
 17 19  2  0  0  0  0
 17 20  1  0  0  0  0
 20 21  1  0  0  0  0
 20 44  1  0  0  0  0
 20 45  1  0  0  0  0
 21 22  1  0  0  0  0
 21 23  1  0  0  0  0
 21 46  1  0  0  0  0
 22 23  1  0  0  0  0
 22 47  1  0  0  0  0
 22 48  1  0  0  0  0
 23 24  1  0  0  0  0
 23 25  1  0  0  0  0
 26 27  1  0  0  0  0
 26 49  1  0  0  0  0
 26 50  1  0  0  0  0
 27 28  1  0  0  0  0
 27 33  2  0  0  0  0
 28 29  2  0  0  0  0
 28 51  1  0  0  0  0
 29 30  1  0  0  0  0
 29 52  1  0  0  0  0
 30 31  1  0  0  0  0
 30 32  2  0  0  0  0
 32 33  1  0  0  0  0
 32 53  1  0  0  0  0
M  END
$$$$
