
 OpenBabel06282217593D

 57 60  0  0  0  0  0  0  0  0999 V2000
    1.5234   -0.5039   -0.0249 C   0  0  0  0  0  0  0  0  0  0  0  0
    0.8821    0.0099    1.2592 C   0  0  0  0  0  0  0  0  0  0  0  0
    1.6369    1.2380    1.7816 C   0  0  0  0  0  0  0  0  0  0  0  0
   -0.6081    0.2579    1.1394 N   0  0  0  0  0  0  0  0  0  0  0  0
   -1.1693    0.6530    2.4465 C   0  0  0  0  0  0  0  0  0  0  0  0
   -1.1350    1.0440   -0.2733 S   0  0  0  0  0  0  0  0  0  0  0  0
   -0.4963    2.3435   -0.3152 O   0  0  0  0  0  0  0  0  0  0  0  0
   -0.9988    0.1163   -1.3666 O   0  0  0  0  0  0  0  0  0  0  0  0
   -2.7719    1.2984   -0.0477 N   0  0  0  0  0  0  0  0  0  0  0  0
   -3.6351    0.1141    0.0479 C   0  0  0  0  0  0  0  0  0  0  0  0
   -5.1015    0.4088    0.3092 C   0  0  0  0  0  0  0  0  0  0  0  0
   -5.9976   -0.6770    0.3231 C   0  0  0  0  0  0  0  0  0  0  0  0
   -7.3668   -0.4687    0.4733 C   0  0  0  0  0  0  0  0  0  0  0  0
   -7.8507    0.8294    0.5957 C   0  0  0  0  0  0  0  0  0  0  0  0
   -9.5466    1.0884    0.7451 Cl  0  0  0  0  0  0  0  0  0  0  0  0
   -6.9746    1.9197    0.6065 C   0  0  0  0  0  0  0  0  0  0  0  0
   -5.5856    1.7209    0.5089 C   0  0  0  0  0  0  0  0  0  0  0  0
   -4.6154    2.8879    0.4987 C   0  0  0  0  0  0  0  0  0  0  0  0
   -4.8602    4.0411    1.4783 C   0  0  0  0  0  0  0  0  0  0  0  0
   -5.3326    5.1183    1.1099 O   0  0  0  0  0  0  0  0  0  0  0  0
   -4.4364    3.9124    2.8084 N   0  0  0  0  0  0  0  0  0  0  0  0
   -5.3274    3.1435    3.6252 C   0  0  0  0  0  0  0  0  0  0  0  0
   -5.1789    1.7643    3.7116 C   0  0  0  0  0  0  0  0  0  0  0  0
   -6.1972    0.9248    3.9761 N   0  0  0  0  0  0  0  0  0  0  0  0
   -7.4213    1.4959    4.0800 C   0  0  0  0  0  0  0  0  0  0  0  0
   -7.6593    2.8771    4.0939 C   0  0  0  0  0  0  0  0  0  0  0  0
   -8.9456    3.4426    4.1213 C   0  0  0  0  0  0  0  0  0  0  0  0
   -9.1152    4.8277    4.1956 C   0  0  0  0  0  0  0  0  0  0  0  0
   -8.0091    5.6615    4.2962 C   0  0  0  0  0  0  0  0  0  0  0  0
   -6.7346    5.1184    4.1927 C   0  0  0  0  0  0  0  0  0  0  0  0
   -6.5494    3.7287    4.0073 C   0  0  0  0  0  0  0  0  0  0  0  0
   -3.1677    2.4731    0.7297 C   0  0  0  0  0  0  0  0  0  0  0  0
    1.5717    0.2710   -0.7971 H   0  0  0  0  0  0  0  0  0  0  0  0
    0.9768   -1.3639   -0.4237 H   0  0  0  0  0  0  0  0  0  0  0  0
    2.5526   -0.8247    0.1685 H   0  0  0  0  0  0  0  0  0  0  0  0
    0.9970   -0.7947    1.9984 H   0  0  0  0  0  0  0  0  0  0  0  0
    1.5309    2.1019    1.1202 H   0  0  0  0  0  0  0  0  0  0  0  0
    1.2852    1.5396    2.7738 H   0  0  0  0  0  0  0  0  0  0  0  0
    2.7060    1.0218    1.8759 H   0  0  0  0  0  0  0  0  0  0  0  0
   -1.0551    1.7252    2.6259 H   0  0  0  0  0  0  0  0  0  0  0  0
   -2.2181    0.3630    2.5225 H   0  0  0  0  0  0  0  0  0  0  0  0
   -0.6690    0.1209    3.2630 H   0  0  0  0  0  0  0  0  0  0  0  0
   -3.5787   -0.4279   -0.9038 H   0  0  0  0  0  0  0  0  0  0  0  0
   -3.2840   -0.5517    0.8423 H   0  0  0  0  0  0  0  0  0  0  0  0
   -5.6297   -1.6948    0.2007 H   0  0  0  0  0  0  0  0  0  0  0  0
   -8.0450   -1.3182    0.4767 H   0  0  0  0  0  0  0  0  0  0  0  0
   -7.3837    2.9242    0.6972 H   0  0  0  0  0  0  0  0  0  0  0  0
   -4.6849    3.3164   -0.5115 H   0  0  0  0  0  0  0  0  0  0  0  0
   -4.4514    4.8772    3.1311 H   0  0  0  0  0  0  0  0  0  0  0  0
   -4.2379    1.2773    3.4835 H   0  0  0  0  0  0  0  0  0  0  0  0
   -8.2423    0.7856    4.1322 H   0  0  0  0  0  0  0  0  0  0  0  0
   -9.8241    2.8064    4.0461 H   0  0  0  0  0  0  0  0  0  0  0  0
  -10.1127    5.2575    4.1828 H   0  0  0  0  0  0  0  0  0  0  0  0
   -8.1310    6.7352    4.4127 H   0  0  0  0  0  0  0  0  0  0  0  0
   -5.8860    5.7962    4.2547 H   0  0  0  0  0  0  0  0  0  0  0  0
   -2.9933    2.2644    1.7826 H   0  0  0  0  0  0  0  0  0  0  0  0
   -2.5405    3.3343    0.4708 H   0  0  0  0  0  0  0  0  0  0  0  0
  1  2  1  0  0  0  0
  1 33  1  0  0  0  0
  1 34  1  0  0  0  0
  1 35  1  0  0  0  0
  2  3  1  0  0  0  0
  2  4  1  0  0  0  0
  2 36  1  0  0  0  0
  3 37  1  0  0  0  0
  3 38  1  0  0  0  0
  3 39  1  0  0  0  0
  4  5  1  0  0  0  0
  4  6  1  0  0  0  0
  5 40  1  0  0  0  0
  5 41  1  0  0  0  0
  5 42  1  0  0  0  0
  6  7  2  0  0  0  0
  6  8  2  0  0  0  0
  6  9  1  0  0  0  0
  9 10  1  0  0  0  0
  9 32  1  0  0  0  0
 10 11  1  0  0  0  0
 10 43  1  0  0  0  0
 10 44  1  0  0  0  0
 11 12  1  0  0  0  0
 11 17  2  0  0  0  0
 12 13  2  0  0  0  0
 12 45  1  0  0  0  0
 13 14  1  0  0  0  0
 13 46  1  0  0  0  0
 14 15  1  0  0  0  0
 14 16  2  0  0  0  0
 16 17  1  0  0  0  0
 16 47  1  0  0  0  0
 17 18  1  0  0  0  0
 18 19  1  0  0  0  0
 18 32  1  0  0  0  0
 18 48  1  0  0  0  0
 19 20  2  0  0  0  0
 19 21  1  0  0  0  0
 21 22  1  0  0  0  0
 21 49  1  0  0  0  0
 22 23  1  0  0  0  0
 22 31  2  0  0  0  0
 23 24  2  0  0  0  0
 23 50  1  0  0  0  0
 24 25  1  0  0  0  0
 25 26  2  0  0  0  0
 25 51  1  0  0  0  0
 26 27  1  0  0  0  0
 26 31  1  0  0  0  0
 27 28  2  0  0  0  0
 27 52  1  0  0  0  0
 28 29  1  0  0  0  0
 28 53  1  0  0  0  0
 29 30  2  0  0  0  0
 29 54  1  0  0  0  0
 30 31  1  0  0  0  0
 30 55  1  0  0  0  0
 32 56  1  0  0  0  0
 32 57  1  0  0  0  0
M  END
$$$$
