
 OpenBabel06282217593D

 56 59  0  0  0  0  0  0  0  0999 V2000
    0.9295   -0.1463   -0.7877 C   0  0  0  0  0  0  0  0  0  0  0  0
    0.8992    1.3066   -0.3093 C   0  0  0  0  0  0  0  0  0  0  0  0
    1.5519    2.1965   -1.3790 C   0  0  0  0  0  0  0  0  0  0  0  0
   -0.4557    1.7555   -0.2160 O   0  0  0  0  0  0  0  0  0  0  0  0
    1.6245    1.5484    1.0206 C   0  0  0  0  0  0  0  0  0  0  0  0
    1.1475    0.5065    2.3959 S   0  0  0  0  0  0  0  0  0  0  0  0
    1.3040   -0.8778    2.0183 O   0  0  0  0  0  0  0  0  0  0  0  0
    1.8137    1.0065    3.5864 O   0  0  0  0  0  0  0  0  0  0  0  0
   -0.4955    0.8460    2.5760 N   0  0  0  0  0  0  0  0  0  0  0  0
   -1.3254   -0.2623    3.0866 C   0  0  0  0  0  0  0  0  0  0  0  0
   -2.8046    0.0775    3.0706 C   0  0  0  0  0  0  0  0  0  0  0  0
   -3.7410   -0.9699    3.0909 C   0  0  0  0  0  0  0  0  0  0  0  0
   -5.1086   -0.6995    3.0781 C   0  0  0  0  0  0  0  0  0  0  0  0
   -5.5490    0.6201    3.0441 C   0  0  0  0  0  0  0  0  0  0  0  0
   -7.2384    0.9505    3.0284 Cl  0  0  0  0  0  0  0  0  0  0  0  0
   -4.6346    1.6755    3.0309 C   0  0  0  0  0  0  0  0  0  0  0  0
   -3.2526    1.4191    3.0773 C   0  0  0  0  0  0  0  0  0  0  0  0
   -2.2459    2.5578    3.0403 C   0  0  0  0  0  0  0  0  0  0  0  0
   -2.4823    3.7403    3.9830 C   0  0  0  0  0  0  0  0  0  0  0  0
   -2.6812    4.8784    3.5490 O   0  0  0  0  0  0  0  0  0  0  0  0
   -2.3183    3.5864    5.3546 N   0  0  0  0  0  0  0  0  0  0  0  0
   -3.3045    2.8081    6.0270 C   0  0  0  0  0  0  0  0  0  0  0  0
   -3.1021    1.4455    6.2205 C   0  0  0  0  0  0  0  0  0  0  0  0
   -4.0690    0.5906    6.6093 N   0  0  0  0  0  0  0  0  0  0  0  0
   -5.2966    1.1265    6.7991 C   0  0  0  0  0  0  0  0  0  0  0  0
   -5.5941    2.4913    6.7199 C   0  0  0  0  0  0  0  0  0  0  0  0
   -6.8914    2.9875    6.9400 C   0  0  0  0  0  0  0  0  0  0  0  0
   -7.1456    4.3585    6.9114 C   0  0  0  0  0  0  0  0  0  0  0  0
   -6.1089    5.2495    6.6689 C   0  0  0  0  0  0  0  0  0  0  0  0
   -4.8306    4.7661    6.3923 C   0  0  0  0  0  0  0  0  0  0  0  0
   -4.5501    3.3766    6.3864 C   0  0  0  0  0  0  0  0  0  0  0  0
   -0.7975    2.1192    3.2730 C   0  0  0  0  0  0  0  0  0  0  0  0
    0.5913   -0.2239   -1.8277 H   0  0  0  0  0  0  0  0  0  0  0  0
    0.2404   -0.7736   -0.2142 H   0  0  0  0  0  0  0  0  0  0  0  0
    1.9393   -0.5661   -0.7317 H   0  0  0  0  0  0  0  0  0  0  0  0
    1.0425    2.0875   -2.3438 H   0  0  0  0  0  0  0  0  0  0  0  0
    1.4666    3.2556   -1.1081 H   0  0  0  0  0  0  0  0  0  0  0  0
    2.6106    1.9552   -1.5173 H   0  0  0  0  0  0  0  0  0  0  0  0
   -0.9537    1.3932   -0.9707 H   0  0  0  0  0  0  0  0  0  0  0  0
    2.7025    1.3858    0.9034 H   0  0  0  0  0  0  0  0  0  0  0  0
    1.4818    2.5825    1.3540 H   0  0  0  0  0  0  0  0  0  0  0  0
   -1.1770   -1.1418    2.4503 H   0  0  0  0  0  0  0  0  0  0  0  0
   -1.0323   -0.5097    4.1138 H   0  0  0  0  0  0  0  0  0  0  0  0
   -3.4069   -2.0057    3.1149 H   0  0  0  0  0  0  0  0  0  0  0  0
   -5.8201   -1.5208    3.0935 H   0  0  0  0  0  0  0  0  0  0  0  0
   -5.0051    2.6981    2.9959 H   0  0  0  0  0  0  0  0  0  0  0  0
   -2.3076    2.9554    2.0164 H   0  0  0  0  0  0  0  0  0  0  0  0
   -2.3376    4.5421    5.7001 H   0  0  0  0  0  0  0  0  0  0  0  0
   -2.1407    0.9831    6.0194 H   0  0  0  0  0  0  0  0  0  0  0  0
   -6.0695    0.3979    7.0312 H   0  0  0  0  0  0  0  0  0  0  0  0
   -7.7161    2.3043    7.1311 H   0  0  0  0  0  0  0  0  0  0  0  0
   -8.1515    4.7315    7.0846 H   0  0  0  0  0  0  0  0  0  0  0  0
   -6.2921    6.3213    6.6771 H   0  0  0  0  0  0  0  0  0  0  0  0
   -4.0554    5.5018    6.1922 H   0  0  0  0  0  0  0  0  0  0  0  0
   -0.5825    1.9836    4.3402 H   0  0  0  0  0  0  0  0  0  0  0  0
   -0.1384    2.9190    2.9159 H   0  0  0  0  0  0  0  0  0  0  0  0
  1  2  1  0  0  0  0
  1 33  1  0  0  0  0
  1 34  1  0  0  0  0
  1 35  1  0  0  0  0
  2  3  1  0  0  0  0
  2  4  1  0  0  0  0
  2  5  1  0  0  0  0
  3 36  1  0  0  0  0
  3 37  1  0  0  0  0
  3 38  1  0  0  0  0
  4 39  1  0  0  0  0
  5  6  1  0  0  0  0
  5 40  1  0  0  0  0
  5 41  1  0  0  0  0
  6  7  2  0  0  0  0
  6  8  2  0  0  0  0
  6  9  1  0  0  0  0
  9 10  1  0  0  0  0
  9 32  1  0  0  0  0
 10 11  1  0  0  0  0
 10 42  1  0  0  0  0
 10 43  1  0  0  0  0
 11 12  1  0  0  0  0
 11 17  2  0  0  0  0
 12 13  2  0  0  0  0
 12 44  1  0  0  0  0
 13 14  1  0  0  0  0
 13 45  1  0  0  0  0
 14 15  1  0  0  0  0
 14 16  2  0  0  0  0
 16 17  1  0  0  0  0
 16 46  1  0  0  0  0
 17 18  1  0  0  0  0
 18 19  1  0  0  0  0
 18 32  1  0  0  0  0
 18 47  1  0  0  0  0
 19 20  2  0  0  0  0
 19 21  1  0  0  0  0
 21 22  1  0  0  0  0
 21 48  1  0  0  0  0
 22 23  1  0  0  0  0
 22 31  2  0  0  0  0
 23 24  2  0  0  0  0
 23 49  1  0  0  0  0
 24 25  1  0  0  0  0
 25 26  2  0  0  0  0
 25 50  1  0  0  0  0
 26 27  1  0  0  0  0
 26 31  1  0  0  0  0
 27 28  2  0  0  0  0
 27 51  1  0  0  0  0
 28 29  1  0  0  0  0
 28 52  1  0  0  0  0
 29 30  2  0  0  0  0
 29 53  1  0  0  0  0
 30 31  1  0  0  0  0
 30 54  1  0  0  0  0
 32 55  1  0  0  0  0
 32 56  1  0  0  0  0
M  END
$$$$
