
 OpenBabel06282217593D

 56 60  0  0  0  0  0  0  0  0999 V2000
    1.4336   -0.3160    0.4090 O   0  0  0  0  0  0  0  0  0  0  0  0
    2.6380   -0.0773    0.1623 C   0  0  0  0  0  0  0  0  0  0  0  0
    3.4351   -0.2141    1.3047 N   0  0  0  0  0  0  0  0  0  0  0  0
    4.7002    0.2618    1.8319 C   0  0  0  0  0  0  0  0  0  0  0  0
    5.3445   -0.2568    2.9423 C   0  0  0  0  0  0  0  0  0  0  0  0
    6.6119    0.0786    3.4298 N   0  0  0  0  0  0  0  0  0  0  0  0
    7.4395    0.9685    2.7695 C   0  0  0  0  0  0  0  0  0  0  0  0
    7.1060    1.6453    1.6071 C   0  0  0  0  0  0  0  0  0  0  0  0
    8.1055    2.6265    0.4335 C   0  0  0  0  0  0  0  0  0  0  0  0
    7.5042    3.1975   -1.1591 C   0  0  0  0  0  0  0  0  0  0  0  0
    5.7777    2.8210   -1.5538 C   0  0  0  0  0  0  0  0  0  0  0  0
    4.7497    1.8513   -0.1208 C   0  0  0  0  0  0  0  0  0  0  0  0
    5.4457    1.2378    1.2628 C   0  0  0  0  0  0  0  0  0  0  0  0
    2.9454    0.1344   -1.4253 C   0  0  0  0  0  0  0  0  0  0  0  0
    3.3460   -1.2418   -2.0054 C   0  0  0  0  0  0  0  0  0  0  0  0
    4.6634   -1.7155   -1.4648 N   0  0  0  0  0  0  0  0  0  0  0  0
    5.0680   -3.3435   -1.7524 S   0  0  0  0  0  0  0  0  0  0  0  0
    4.9520   -3.5272   -3.1864 O   0  0  0  0  0  0  0  0  0  0  0  0
    6.3356   -3.6013   -1.1077 O   0  0  0  0  0  0  0  0  0  0  0  0
    3.8008   -4.3692   -1.0009 C   0  0  0  0  0  0  0  0  0  0  0  0
    3.6316   -4.1803    0.4896 C   0  0  0  0  0  0  0  0  0  0  0  0
    4.8806   -4.3166    1.3288 C   0  0  0  0  0  0  0  0  0  0  0  0
    5.6651   -5.3141    0.8732 F   0  0  0  0  0  0  0  0  0  0  0  0
    5.5712   -3.1612    1.3657 F   0  0  0  0  0  0  0  0  0  0  0  0
    4.5598   -4.6194    2.6137 F   0  0  0  0  0  0  0  0  0  0  0  0
    2.4657   -3.3635    1.0303 C   0  0  0  0  0  0  0  0  0  0  0  0
    2.3651   -4.8518    1.0367 C   0  0  0  0  0  0  0  0  0  0  0  0
    5.7628   -0.8348   -1.9861 C   0  0  0  0  0  0  0  0  0  0  0  0
    5.5112    0.6143   -1.6883 C   0  0  0  0  0  0  0  0  0  0  0  0
    6.5594    1.4299   -0.5282 C   0  0  0  0  0  0  0  0  0  0  0  0
    5.9795    3.1883    0.3067 C   0  0  0  0  0  0  0  0  0  0  0  0
    4.4357    3.9206   -0.2962 C   0  0  0  0  0  0  0  0  0  0  0  0
    3.8185    5.3558    0.4055 Cl  0  0  0  0  0  0  0  0  0  0  0  0
    3.4700    2.9920   -1.4775 C   0  0  0  0  0  0  0  0  0  0  0  0
    3.9469    1.3321   -2.0113 C   0  0  0  0  0  0  0  0  0  0  0  0
    2.8708   -0.6300    2.0391 H   0  0  0  0  0  0  0  0  0  0  0  0
    4.8820   -1.0596    3.5147 H   0  0  0  0  0  0  0  0  0  0  0  0
    8.4356    1.0514    3.1940 H   0  0  0  0  0  0  0  0  0  0  0  0
    9.1490    2.8123    0.6885 H   0  0  0  0  0  0  0  0  0  0  0  0
    8.1288    3.7626   -1.8412 H   0  0  0  0  0  0  0  0  0  0  0  0
    5.4120    3.2437   -2.4973 H   0  0  0  0  0  0  0  0  0  0  0  0
    3.6691    1.8392    0.0835 H   0  0  0  0  0  0  0  0  0  0  0  0
    1.9797    0.4165   -1.8697 H   0  0  0  0  0  0  0  0  0  0  0  0
    3.3935   -1.1904   -3.1004 H   0  0  0  0  0  0  0  0  0  0  0  0
    2.5694   -1.9651   -1.7429 H   0  0  0  0  0  0  0  0  0  0  0  0
    2.8713   -4.1885   -1.5495 H   0  0  0  0  0  0  0  0  0  0  0  0
    4.1021   -5.4037   -1.2031 H   0  0  0  0  0  0  0  0  0  0  0  0
    2.5709   -2.8815    1.9967 H   0  0  0  0  0  0  0  0  0  0  0  0
    1.8129   -2.8366    0.3463 H   0  0  0  0  0  0  0  0  0  0  0  0
    1.6605   -5.3064    0.3468 H   0  0  0  0  0  0  0  0  0  0  0  0
    2.3961   -5.3542    1.9990 H   0  0  0  0  0  0  0  0  0  0  0  0
    6.7176   -1.1157   -1.5314 H   0  0  0  0  0  0  0  0  0  0  0  0
    5.8552   -0.9416   -3.0730 H   0  0  0  0  0  0  0  0  0  0  0  0
    7.4530    0.7994   -0.3554 H   0  0  0  0  0  0  0  0  0  0  0  0
    6.4444    3.7958    1.0965 H   0  0  0  0  0  0  0  0  0  0  0  0
    2.4311    3.3006   -1.6108 H   0  0  0  0  0  0  0  0  0  0  0  0
  1  2  2  0  0  0  0
  2  3  1  0  0  0  0
  2 14  1  0  0  0  0
  3  4  1  0  0  0  0
  3 36  1  0  0  0  0
  4  5  1  0  0  0  0
  4 13  2  0  0  0  0
  5  6  2  0  0  0  0
  5 37  1  0  0  0  0
  6  7  1  0  0  0  0
  7  8  2  0  0  0  0
  7 38  1  0  0  0  0
  8  9  1  0  0  0  0
  8 13  1  0  0  0  0
  9 10  2  0  0  0  0
  9 39  1  0  0  0  0
 10 11  1  0  0  0  0
 10 40  1  0  0  0  0
 11 12  2  0  0  0  0
 11 41  1  0  0  0  0
 12 13  1  0  0  0  0
 12 42  1  0  0  0  0
 14 15  1  0  0  0  0
 14 35  1  0  0  0  0
 14 43  1  0  0  0  0
 15 16  1  0  0  0  0
 15 44  1  0  0  0  0
 15 45  1  0  0  0  0
 16 17  1  0  0  0  0
 16 28  1  0  0  0  0
 17 18  2  0  0  0  0
 17 19  2  0  0  0  0
 17 20  1  0  0  0  0
 20 21  1  0  0  0  0
 20 46  1  0  0  0  0
 20 47  1  0  0  0  0
 21 22  1  0  0  0  0
 21 26  1  0  0  0  0
 21 27  1  0  0  0  0
 22 23  1  0  0  0  0
 22 24  1  0  0  0  0
 22 25  1  0  0  0  0
 26 27  1  0  0  0  0
 26 48  1  0  0  0  0
 26 49  1  0  0  0  0
 27 50  1  0  0  0  0
 27 51  1  0  0  0  0
 28 29  1  0  0  0  0
 28 52  1  0  0  0  0
 28 53  1  0  0  0  0
 29 30  1  0  0  0  0
 29 35  2  0  0  0  0
 30 31  2  0  0  0  0
 30 54  1  0  0  0  0
 31 32  1  0  0  0  0
 31 55  1  0  0  0  0
 32 33  1  0  0  0  0
 32 34  2  0  0  0  0
 34 35  1  0  0  0  0
 34 56  1  0  0  0  0
M  END
$$$$
