lig_31
  -OEChem-01312017293D

 41 43  0     0  0  0  0  0  0999 V2000
    3.8100  -50.0800    6.4300 O   0  5  0  0  0  0  0  0  0  0  0  0
    2.9400  -49.1700    6.5100 C   0  0  0  0  0  0  0  0  0  0  0  0
    3.2800  -47.9700    6.6700 O   0  0  0  0  0  0  0  0  0  0  0  0
    1.5200  -49.6100    6.4100 C   0  0  0  0  0  0  0  0  0  0  0  0
    1.0100  -51.1700    6.8300 N   0  0  0  0  0  0  0  0  0  0  0  0
    1.5300  -51.9500    7.1800 H   0  0  0  0  0  0  0  0  0  0  0  0
   -0.6500  -51.0200    6.4700 C   0  0  0  0  0  0  0  0  0  0  0  0
   -1.7400  -51.8800    6.5500 C   0  0  0  0  0  0  0  0  0  0  0  0
   -1.5900  -52.9000    6.8900 H   0  0  0  0  0  0  0  0  0  0  0  0
   -3.0100  -51.4600    6.1900 C   0  0  0  0  0  0  0  0  0  0  0  0
   -3.8500  -52.1300    6.2600 H   0  0  0  0  0  0  0  0  0  0  0  0
   -3.1800  -50.1500    5.7300 C   0  0  0  0  0  0  0  0  0  0  0  0
   -4.1700  -49.8000    5.4500 H   0  0  0  0  0  0  0  0  0  0  0  0
   -2.1000  -49.2800    5.6300 C   0  0  0  0  0  0  0  0  0  0  0  0
   -2.2500  -48.2700    5.2600 H   0  0  0  0  0  0  0  0  0  0  0  0
   -0.8300  -49.7000    6.0100 C   0  0  0  0  0  0  0  0  0  0  0  0
    0.3700  -48.9100    5.9700 C   0  0  0  0  0  0  0  0  0  0  0  0
    0.4000  -47.4900    5.5200 C   0  0  0  0  0  0  0  0  0  0  0  0
    1.2300  -47.3700    4.8200 H   0  0  0  0  0  0  0  0  0  0  0  0
   -0.5400  -47.2800    5.0200 H   0  0  0  0  0  0  0  0  0  0  0  0
    0.5800  -46.4700    6.6100 C   0  0  0  0  0  0  0  0  0  0  0  0
    0.4600  -45.4900    6.1500 H   0  0  0  0  0  0  0  0  0  0  0  0
    1.6000  -46.5800    6.9800 H   0  0  0  0  0  0  0  0  0  0  0  0
   -0.3300  -46.5300    7.7900 C   0  0  0  0  0  0  0  0  0  0  0  0
   -0.0600  -45.7300    8.4900 H   0  0  0  0  0  0  0  0  0  0  0  0
   -0.2200  -47.5000    8.2800 H   0  0  0  0  0  0  0  0  0  0  0  0
   -1.6500  -46.3700    7.4000 O   0  0  0  0  0  0  0  0  0  0  0  0
   -2.6800  -46.2900    8.2900 C   0  0  0  0  0  0  0  0  0  0  0  0
   -2.6200  -46.9400    9.5000 C   0  0  0  0  0  0  0  0  0  0  0  0
   -1.7400  -47.5100    9.7700 H   0  0  0  0  0  0  0  0  0  0  0  0
   -3.7000  -46.8300   10.3800 C   0  0  0  0  0  0  0  0  0  0  0  0
   -3.6400  -47.4900   11.6400 C   0  0  0  0  0  0  0  0  0  0  0  0
   -2.4300  -48.1600   11.7600 F   0  0  0  0  0  0  0  0  0  0  0  0
   -4.6800  -48.4000   11.7400 F   0  0  0  0  0  0  0  0  0  0  0  0
   -3.7500  -46.5500   12.6600 F   0  0  0  0  0  0  0  0  0  0  0  0
   -4.8300  -46.0900   10.0400 C   0  0  0  0  0  0  0  0  0  0  0  0
   -5.6600  -46.0200   10.7300 H   0  0  0  0  0  0  0  0  0  0  0  0
   -4.8800  -45.4500    8.8200 C   0  0  0  0  0  0  0  0  0  0  0  0
   -5.7600  -44.8700    8.5400 H   0  0  0  0  0  0  0  0  0  0  0  0
   -3.8000  -45.5400    7.9400 C   0  0  0  0  0  0  0  0  0  0  0  0
   -3.8400  -45.0400    6.9900 H   0  0  0  0  0  0  0  0  0  0  0  0
 18 19  1  0  0  0  0
 18 20  1  0  0  0  0
 14 15  1  0  0  0  0
 12 13  1  0  0  0  0
 17 18  1  0  0  0  0
 18 21  1  0  0  0  0
 12 14  2  0  0  0  0
 14 16  1  0  0  0  0
 10 12  1  0  0  0  0
 16 17  1  0  0  0  0
  4 17  2  0  0  0  0
  7 16  2  0  0  0  0
 21 22  1  0  0  0  0
 10 11  1  0  0  0  0
  8 10  2  0  0  0  0
  2  4  1  0  0  0  0
  4  5  1  0  0  0  0
  1  2  1  0  0  0  0
  7  8  1  0  0  0  0
  5  7  1  0  0  0  0
  2  3  2  0  0  0  0
  8  9  1  0  0  0  0
 21 23  1  0  0  0  0
 21 24  1  0  0  0  0
  5  6  1  0  0  0  0
 40 41  1  0  0  0  0
 24 27  1  0  0  0  0
 27 28  1  0  0  0  0
 24 26  1  0  0  0  0
 24 25  1  0  0  0  0
 28 40  2  0  0  0  0
 38 40  1  0  0  0  0
 28 29  1  0  0  0  0
 38 39  1  0  0  0  0
 36 38  2  0  0  0  0
 29 30  1  0  0  0  0
 29 31  2  0  0  0  0
 31 36  1  0  0  0  0
 36 37  1  0  0  0  0
 31 32  1  0  0  0  0
 32 34  1  0  0  0  0
 32 33  1  0  0  0  0
 32 35  1  0  0  0  0
M  CHG  1   1  -1
M  END
$$$$
