lig_44
  -OEChem-01312017303D

 44 47  0     0  0  0  0  0  0999 V2000
    3.8100  -50.0800    6.4300 O   0  5  0  0  0  0  0  0  0  0  0  0
    2.9400  -49.1700    6.5100 C   0  0  0  0  0  0  0  0  0  0  0  0
    3.2800  -47.9700    6.6700 O   0  0  0  0  0  0  0  0  0  0  0  0
    1.5200  -49.6100    6.4100 C   0  0  0  0  0  0  0  0  0  0  0  0
    1.0100  -51.1700    6.8300 N   0  0  0  0  0  0  0  0  0  0  0  0
    1.5300  -51.9500    7.1800 H   0  0  0  0  0  0  0  0  0  0  0  0
   -0.6500  -51.0200    6.4700 C   0  0  0  0  0  0  0  0  0  0  0  0
   -1.7400  -51.8800    6.5500 C   0  0  0  0  0  0  0  0  0  0  0  0
   -1.5900  -52.9000    6.8900 H   0  0  0  0  0  0  0  0  0  0  0  0
   -3.0100  -51.4600    6.1900 C   0  0  0  0  0  0  0  0  0  0  0  0
   -3.8500  -52.1300    6.2600 H   0  0  0  0  0  0  0  0  0  0  0  0
   -3.1800  -50.1500    5.7300 C   0  0  0  0  0  0  0  0  0  0  0  0
   -4.1700  -49.8000    5.4500 H   0  0  0  0  0  0  0  0  0  0  0  0
   -2.1000  -49.2800    5.6300 C   0  0  0  0  0  0  0  0  0  0  0  0
   -2.2500  -48.2700    5.2600 H   0  0  0  0  0  0  0  0  0  0  0  0
   -0.8300  -49.7000    6.0100 C   0  0  0  0  0  0  0  0  0  0  0  0
    0.3700  -48.9100    5.9700 C   0  0  0  0  0  0  0  0  0  0  0  0
    0.4000  -47.4900    5.5200 C   0  0  0  0  0  0  0  0  0  0  0  0
    1.1900  -47.3900    4.7800 H   0  0  0  0  0  0  0  0  0  0  0  0
   -0.5600  -47.2600    5.0600 H   0  0  0  0  0  0  0  0  0  0  0  0
    0.6500  -46.4800    6.6000 C   0  0  0  0  0  0  0  0  0  0  0  0
    0.5300  -45.4900    6.1500 H   0  0  0  0  0  0  0  0  0  0  0  0
    1.6900  -46.6000    6.9200 H   0  0  0  0  0  0  0  0  0  0  0  0
   -0.2000  -46.5200    7.8200 C   0  0  0  0  0  0  0  0  0  0  0  0
    0.0400  -45.6700    8.4600 H   0  0  0  0  0  0  0  0  0  0  0  0
    0.0000  -47.4400    8.3700 H   0  0  0  0  0  0  0  0  0  0  0  0
   -1.5400  -46.4700    7.4900 O   0  0  0  0  0  0  0  0  0  0  0  0
   -2.5500  -46.5300    8.4200 C   0  0  0  0  0  0  0  0  0  0  0  0
   -3.7500  -45.9100    8.1800 C   0  0  0  0  0  0  0  0  0  0  0  0
   -4.7500  -46.0000    9.1500 C   0  0  0  0  0  0  0  0  0  0  0  0
   -4.5400  -46.7000   10.3500 C   0  0  0  0  0  0  0  0  0  0  0  0
   -5.8100  -46.7900   11.5500 Cl  0  0  0  0  0  0  0  0  0  0  0  0
   -3.3200  -47.3200   10.5600 C   0  0  0  0  0  0  0  0  0  0  0  0
   -3.1500  -47.8600   11.4800 H   0  0  0  0  0  0  0  0  0  0  0  0
   -2.3200  -47.2400    9.5900 C   0  0  0  0  0  0  0  0  0  0  0  0
   -1.3800  -47.7300    9.7600 H   0  0  0  0  0  0  0  0  0  0  0  0
   -5.9900  -45.3600    8.9200 C   0  0  0  0  0  0  0  0  0  0  0  0
   -6.7700  -45.4300    9.6600 H   0  0  0  0  0  0  0  0  0  0  0  0
   -6.2300  -44.6600    7.7400 C   0  0  0  0  0  0  0  0  0  0  0  0
   -7.1900  -44.1800    7.5800 H   0  0  0  0  0  0  0  0  0  0  0  0
   -5.2300  -44.5700    6.7700 C   0  0  0  0  0  0  0  0  0  0  0  0
   -5.4200  -44.0200    5.8500 H   0  0  0  0  0  0  0  0  0  0  0  0
   -4.0000  -45.1800    6.9700 C   0  0  0  0  0  0  0  0  0  0  0  0
   -3.2300  -45.1100    6.2200 H   0  0  0  0  0  0  0  0  0  0  0  0
 18 19  1  0  0  0  0
 18 20  1  0  0  0  0
 14 15  1  0  0  0  0
 12 13  1  0  0  0  0
 17 18  1  0  0  0  0
 18 21  1  0  0  0  0
 12 14  2  0  0  0  0
 14 16  1  0  0  0  0
 10 12  1  0  0  0  0
 41 42  1  0  0  0  0
 16 17  1  0  0  0  0
  4 17  2  0  0  0  0
  7 16  2  0  0  0  0
 21 22  1  0  0  0  0
 10 11  1  0  0  0  0
  8 10  2  0  0  0  0
 43 44  1  0  0  0  0
  2  4  1  0  0  0  0
  4  5  1  0  0  0  0
  1  2  1  0  0  0  0
  7  8  1  0  0  0  0
  5  7  1  0  0  0  0
  2  3  2  0  0  0  0
  8  9  1  0  0  0  0
 21 23  1  0  0  0  0
 21 24  1  0  0  0  0
 41 43  2  0  0  0  0
 39 41  1  0  0  0  0
  5  6  1  0  0  0  0
 29 43  1  0  0  0  0
 24 27  1  0  0  0  0
 27 28  1  0  0  0  0
 39 40  1  0  0  0  0
 37 39  2  0  0  0  0
 24 26  1  0  0  0  0
 24 25  1  0  0  0  0
 28 29  2  0  0  0  0
 29 30  1  0  0  0  0
 28 35  1  0  0  0  0
 30 37  1  0  0  0  0
 37 38  1  0  0  0  0
 30 31  2  0  0  0  0
 35 36  1  0  0  0  0
 33 35  2  0  0  0  0
 31 33  1  0  0  0  0
 31 32  1  0  0  0  0
 33 34  1  0  0  0  0
M  CHG  1   1  -1
M  END
$$$$
