
 OpenBabel06282218483D

 52 56  0  0  0  0  0  0  0  0999 V2000
    1.8020    0.0059   -1.4311 O   0  0  0  0  0  0  0  0  0  0  0  0
    2.7062   -0.0197   -0.5903 C   0  0  0  0  0  0  0  0  0  0  0  0
    3.9866   -0.1917   -1.0699 N   0  0  0  0  0  0  0  0  0  0  0  0
    5.0142    0.7740   -0.8977 C   0  0  0  0  0  0  0  0  0  0  0  0
    4.7726    2.1318   -1.1027 C   0  0  0  0  0  0  0  0  0  0  0  0
    5.7234    3.0867   -1.0202 N   0  0  0  0  0  0  0  0  0  0  0  0
    6.9755    2.6683   -0.7230 C   0  0  0  0  0  0  0  0  0  0  0  0
    7.3437    1.3360   -0.5181 C   0  0  0  0  0  0  0  0  0  0  0  0
    8.6671    0.9642   -0.2141 C   0  0  0  0  0  0  0  0  0  0  0  0
    9.0030   -0.3747   -0.0154 C   0  0  0  0  0  0  0  0  0  0  0  0
    8.0250   -1.3555   -0.1250 C   0  0  0  0  0  0  0  0  0  0  0  0
    6.7104   -0.9962   -0.4301 C   0  0  0  0  0  0  0  0  0  0  0  0
    6.3372    0.3529   -0.6249 C   0  0  0  0  0  0  0  0  0  0  0  0
    2.4293   -0.0474    0.9520 C   0  0  0  0  0  0  0  0  0  0  0  0
    3.1657   -1.2746    1.5924 C   0  0  0  0  0  0  0  0  0  0  0  0
    2.5595   -2.6764    1.4157 C   0  0  0  0  0  0  0  0  0  0  0  0
    2.3791   -3.1259   -0.0034 C   0  0  0  0  0  0  0  0  0  0  0  0
    3.5382   -3.5700   -0.8550 C   0  0  0  0  0  0  0  0  0  0  0  0
    2.5581   -4.5850   -0.3407 C   0  0  0  0  0  0  0  0  0  0  0  0
    0.9008   -0.2046    1.1780 C   0  0  0  0  0  0  0  0  0  0  0  0
    0.1526    1.0717    0.8300 C   0  0  0  0  0  0  0  0  0  0  0  0
    0.5370    2.1617    1.6547 O   0  0  0  0  0  0  0  0  0  0  0  0
    1.8741    2.2660    1.9144 C   0  0  0  0  0  0  0  0  0  0  0  0
    2.2282    3.4548    2.5648 C   0  0  0  0  0  0  0  0  0  0  0  0
    3.5427    3.6822    2.9588 C   0  0  0  0  0  0  0  0  0  0  0  0
    4.4972    2.7031    2.7223 C   0  0  0  0  0  0  0  0  0  0  0  0
    6.1261    2.9593    3.2154 Cl  0  0  0  0  0  0  0  0  0  0  0  0
    4.1444    1.5055    2.0922 C   0  0  0  0  0  0  0  0  0  0  0  0
    2.8280    1.2687    1.6459 C   0  0  0  0  0  0  0  0  0  0  0  0
    3.8731   -0.3513   -2.0703 H   0  0  0  0  0  0  0  0  0  0  0  0
    3.7833    2.5031   -1.3568 H   0  0  0  0  0  0  0  0  0  0  0  0
    7.7090    3.4686   -0.6545 H   0  0  0  0  0  0  0  0  0  0  0  0
    9.4456    1.7196   -0.1268 H   0  0  0  0  0  0  0  0  0  0  0  0
   10.0269   -0.6508    0.2246 H   0  0  0  0  0  0  0  0  0  0  0  0
    8.2807   -2.4010    0.0299 H   0  0  0  0  0  0  0  0  0  0  0  0
    5.9675   -1.7848   -0.5055 H   0  0  0  0  0  0  0  0  0  0  0  0
    4.2048   -1.3164    1.2479 H   0  0  0  0  0  0  0  0  0  0  0  0
    3.2286   -1.1128    2.6784 H   0  0  0  0  0  0  0  0  0  0  0  0
    3.2168   -3.3819    1.9416 H   0  0  0  0  0  0  0  0  0  0  0  0
    1.5950   -2.7363    1.9328 H   0  0  0  0  0  0  0  0  0  0  0  0
    1.5499   -2.6306   -0.4964 H   0  0  0  0  0  0  0  0  0  0  0  0
    3.5066   -3.3259   -1.9115 H   0  0  0  0  0  0  0  0  0  0  0  0
    4.5329   -3.5831   -0.4295 H   0  0  0  0  0  0  0  0  0  0  0  0
    2.9000   -5.2673    0.4296 H   0  0  0  0  0  0  0  0  0  0  0  0
    1.8643   -5.0300   -1.0451 H   0  0  0  0  0  0  0  0  0  0  0  0
    0.7112   -0.4400    2.2347 H   0  0  0  0  0  0  0  0  0  0  0  0
    0.4810   -1.0216    0.5832 H   0  0  0  0  0  0  0  0  0  0  0  0
    0.2623    1.3712   -0.2162 H   0  0  0  0  0  0  0  0  0  0  0  0
   -0.9190    0.9095    0.9933 H   0  0  0  0  0  0  0  0  0  0  0  0
    1.4653    4.2026    2.7704 H   0  0  0  0  0  0  0  0  0  0  0  0
    3.8062    4.6110    3.4559 H   0  0  0  0  0  0  0  0  0  0  0  0
    4.9218    0.7593    1.9513 H   0  0  0  0  0  0  0  0  0  0  0  0
  1  2  2  0  0  0  0
  2  3  1  0  0  0  0
  2 14  1  0  0  0  0
  3  4  1  0  0  0  0
  3 30  1  0  0  0  0
  4  5  1  0  0  0  0
  4 13  2  0  0  0  0
  5  6  2  0  0  0  0
  5 31  1  0  0  0  0
  6  7  1  0  0  0  0
  7  8  2  0  0  0  0
  7 32  1  0  0  0  0
  8  9  1  0  0  0  0
  8 13  1  0  0  0  0
  9 10  2  0  0  0  0
  9 33  1  0  0  0  0
 10 11  1  0  0  0  0
 10 34  1  0  0  0  0
 11 12  2  0  0  0  0
 11 35  1  0  0  0  0
 12 13  1  0  0  0  0
 12 36  1  0  0  0  0
 14 15  1  0  0  0  0
 14 20  1  0  0  0  0
 14 29  1  0  0  0  0
 15 16  1  0  0  0  0
 15 37  1  0  0  0  0
 15 38  1  0  0  0  0
 16 17  1  0  0  0  0
 16 39  1  0  0  0  0
 16 40  1  0  0  0  0
 17 18  1  0  0  0  0
 17 19  1  0  0  0  0
 17 41  1  0  0  0  0
 18 19  1  0  0  0  0
 18 42  1  0  0  0  0
 18 43  1  0  0  0  0
 19 44  1  0  0  0  0
 19 45  1  0  0  0  0
 20 21  1  0  0  0  0
 20 46  1  0  0  0  0
 20 47  1  0  0  0  0
 21 22  1  0  0  0  0
 21 48  1  0  0  0  0
 21 49  1  0  0  0  0
 22 23  1  0  0  0  0
 23 24  1  0  0  0  0
 23 29  2  0  0  0  0
 24 25  2  0  0  0  0
 24 50  1  0  0  0  0
 25 26  1  0  0  0  0
 25 51  1  0  0  0  0
 26 27  1  0  0  0  0
 26 28  2  0  0  0  0
 28 29  1  0  0  0  0
 28 52  1  0  0  0  0
M  END
$$$$
