
 OpenBabel06282218483D

 44 47  0  0  0  0  0  0  0  0999 V2000
    2.0842   -0.5343    1.0740 C   0  0  0  0  0  0  0  0  0  0  0  0
    1.1677   -1.5293    0.5565 N   0  0  0  0  0  0  0  0  0  0  0  0
   -0.0809   -1.0477   -0.1161 C   0  0  0  0  0  0  0  0  0  0  0  0
   -0.6607   -2.3415   -0.8331 C   0  0  0  0  0  0  0  0  0  0  0  0
    0.0960   -3.2598   -1.1866 O   0  0  0  0  0  0  0  0  0  0  0  0
   -1.9975   -2.5218   -1.1165 N   0  0  0  0  0  0  0  0  0  0  0  0
   -2.7488   -1.5564   -1.8354 C   0  0  0  0  0  0  0  0  0  0  0  0
   -3.6691   -0.7633   -1.1560 C   0  0  0  0  0  0  0  0  0  0  0  0
   -4.4837    0.1328   -1.7527 N   0  0  0  0  0  0  0  0  0  0  0  0
   -4.3930    0.2243   -3.0980 C   0  0  0  0  0  0  0  0  0  0  0  0
   -3.5410   -0.5465   -3.8947 C   0  0  0  0  0  0  0  0  0  0  0  0
   -3.5213   -0.4160   -5.2964 C   0  0  0  0  0  0  0  0  0  0  0  0
   -2.6731   -1.2033   -6.0743 C   0  0  0  0  0  0  0  0  0  0  0  0
   -1.8336   -2.1259   -5.4622 C   0  0  0  0  0  0  0  0  0  0  0  0
   -1.8412   -2.2615   -4.0709 C   0  0  0  0  0  0  0  0  0  0  0  0
   -2.6944   -1.4779   -3.2523 C   0  0  0  0  0  0  0  0  0  0  0  0
    0.2008   -0.0031   -1.2157 C   0  0  0  0  0  0  0  0  0  0  0  0
    0.1186    1.4169   -0.6866 C   0  0  0  0  0  0  0  0  0  0  0  0
   -1.1509    1.6893   -0.0980 O   0  0  0  0  0  0  0  0  0  0  0  0
   -1.4935    0.8117    0.8929 C   0  0  0  0  0  0  0  0  0  0  0  0
   -2.3963    1.2918    1.8449 C   0  0  0  0  0  0  0  0  0  0  0  0
   -2.8173    0.4704    2.8908 C   0  0  0  0  0  0  0  0  0  0  0  0
   -2.3375   -0.8332    2.9763 C   0  0  0  0  0  0  0  0  0  0  0  0
   -2.8486   -1.8497    4.2666 Cl  0  0  0  0  0  0  0  0  0  0  0  0
   -1.4531   -1.3239    2.0159 C   0  0  0  0  0  0  0  0  0  0  0  0
   -1.0304   -0.5091    0.9458 C   0  0  0  0  0  0  0  0  0  0  0  0
    1.5982    0.1500    1.7754 H   0  0  0  0  0  0  0  0  0  0  0  0
    2.5652    0.0369    0.2752 H   0  0  0  0  0  0  0  0  0  0  0  0
    2.8814   -1.0402    1.6287 H   0  0  0  0  0  0  0  0  0  0  0  0
    1.6517   -2.1612   -0.0886 H   0  0  0  0  0  0  0  0  0  0  0  0
   -2.0205   -3.4217   -1.5914 H   0  0  0  0  0  0  0  0  0  0  0  0
   -3.8017   -0.8459   -0.0810 H   0  0  0  0  0  0  0  0  0  0  0  0
   -5.0628    0.9595   -3.5388 H   0  0  0  0  0  0  0  0  0  0  0  0
   -4.1745    0.3003   -5.7919 H   0  0  0  0  0  0  0  0  0  0  0  0
   -2.6690   -1.0973   -7.1567 H   0  0  0  0  0  0  0  0  0  0  0  0
   -1.1691   -2.7421   -6.0645 H   0  0  0  0  0  0  0  0  0  0  0  0
   -1.1594   -2.9897   -3.6350 H   0  0  0  0  0  0  0  0  0  0  0  0
   -0.5299   -0.0900   -2.0249 H   0  0  0  0  0  0  0  0  0  0  0  0
    1.1724   -0.1811   -1.6933 H   0  0  0  0  0  0  0  0  0  0  0  0
    0.9079    1.6551    0.0332 H   0  0  0  0  0  0  0  0  0  0  0  0
    0.2423    2.1177   -1.5200 H   0  0  0  0  0  0  0  0  0  0  0  0
   -2.7684    2.3109    1.7718 H   0  0  0  0  0  0  0  0  0  0  0  0
   -3.5139    0.8537    3.6314 H   0  0  0  0  0  0  0  0  0  0  0  0
   -1.0827   -2.3445    2.0982 H   0  0  0  0  0  0  0  0  0  0  0  0
  1  2  1  0  0  0  0
  1 27  1  0  0  0  0
  1 28  1  0  0  0  0
  1 29  1  0  0  0  0
  2  3  1  0  0  0  0
  2 30  1  0  0  0  0
  3  4  1  0  0  0  0
  3 17  1  0  0  0  0
  3 26  1  0  0  0  0
  4  5  2  0  0  0  0
  4  6  1  0  0  0  0
  6  7  1  0  0  0  0
  6 31  1  0  0  0  0
  7  8  1  0  0  0  0
  7 16  2  0  0  0  0
  8  9  2  0  0  0  0
  8 32  1  0  0  0  0
  9 10  1  0  0  0  0
 10 11  2  0  0  0  0
 10 33  1  0  0  0  0
 11 12  1  0  0  0  0
 11 16  1  0  0  0  0
 12 13  2  0  0  0  0
 12 34  1  0  0  0  0
 13 14  1  0  0  0  0
 13 35  1  0  0  0  0
 14 15  2  0  0  0  0
 14 36  1  0  0  0  0
 15 16  1  0  0  0  0
 15 37  1  0  0  0  0
 17 18  1  0  0  0  0
 17 38  1  0  0  0  0
 17 39  1  0  0  0  0
 18 19  1  0  0  0  0
 18 40  1  0  0  0  0
 18 41  1  0  0  0  0
 19 20  1  0  0  0  0
 20 21  1  0  0  0  0
 20 26  2  0  0  0  0
 21 22  2  0  0  0  0
 21 42  1  0  0  0  0
 22 23  1  0  0  0  0
 22 43  1  0  0  0  0
 23 24  1  0  0  0  0
 23 25  2  0  0  0  0
 25 26  1  0  0  0  0
 25 44  1  0  0  0  0
M  END
$$$$
