
 OpenBabel06282218493D

 56 61  0  0  0  0  0  0  0  0999 V2000
    1.1000    0.3138    0.5254 O   0  0  0  0  0  0  0  0  0  0  0  0
    2.3180    0.1333    0.3519 C   0  0  0  0  0  0  0  0  0  0  0  0
    3.0596   -0.1403    1.5548 N   0  0  0  0  0  0  0  0  0  0  0  0
    4.3683    0.2480    2.1429 C   0  0  0  0  0  0  0  0  0  0  0  0
    4.9649   -0.3706    3.2303 C   0  0  0  0  0  0  0  0  0  0  0  0
    6.2591   -0.1651    3.7418 N   0  0  0  0  0  0  0  0  0  0  0  0
    7.1671    0.7028    3.1541 C   0  0  0  0  0  0  0  0  0  0  0  0
    6.9126    1.4474    2.0172 C   0  0  0  0  0  0  0  0  0  0  0  0
    8.0421    2.3108    0.8626 C   0  0  0  0  0  0  0  0  0  0  0  0
    7.5643    2.8234   -0.7938 C   0  0  0  0  0  0  0  0  0  0  0  0
    5.8398    2.5263   -1.2600 C   0  0  0  0  0  0  0  0  0  0  0  0
    4.6786    1.7222    0.1778 C   0  0  0  0  0  0  0  0  0  0  0  0
    5.2334    1.1531    1.6121 C   0  0  0  0  0  0  0  0  0  0  0  0
    2.8347   -0.0229   -1.2294 C   0  0  0  0  0  0  0  0  0  0  0  0
    1.6858    0.1513   -2.3258 C   0  0  0  0  0  0  0  0  0  0  0  0
    1.9923   -0.4058   -3.6756 N   0  0  0  0  0  0  0  0  0  0  0  0
    1.7648   -1.7317   -3.9864 C   0  0  0  0  0  0  0  0  0  0  0  0
    2.8911   -2.3017   -4.3747 N   0  0  0  0  0  0  0  0  0  0  0  0
    3.7843   -1.2590   -4.5037 C   0  0  0  0  0  0  0  0  0  0  0  0
    5.1834   -1.2314   -4.5852 C   0  0  0  0  0  0  0  0  0  0  0  0
    5.8111    0.0085   -4.7700 C   0  0  0  0  0  0  0  0  0  0  0  0
    5.0563    1.1650   -4.9900 C   0  0  0  0  0  0  0  0  0  0  0  0
    3.6656    1.1668   -4.8219 C   0  0  0  0  0  0  0  0  0  0  0  0
    3.1001   -0.0484   -4.4320 C   0  0  0  0  0  0  0  0  0  0  0  0
    3.2707   -1.5246   -1.1762 C   0  0  0  0  0  0  0  0  0  0  0  0
    4.6527   -1.8282   -0.6459 C   0  0  0  0  0  0  0  0  0  0  0  0
    5.6511   -1.0647   -1.3572 N   0  0  0  0  0  0  0  0  0  0  0  0
    5.4613    0.3236   -1.2495 C   0  0  0  0  0  0  0  0  0  0  0  0
    6.4815    1.1641   -0.1067 C   0  0  0  0  0  0  0  0  0  0  0  0
    5.9712    3.0085    0.5816 C   0  0  0  0  0  0  0  0  0  0  0  0
    4.5068    3.7809   -0.1616 C   0  0  0  0  0  0  0  0  0  0  0  0
    3.9331    5.2906    0.4088 Cl  0  0  0  0  0  0  0  0  0  0  0  0
    3.5503    2.8094   -1.3270 C   0  0  0  0  0  0  0  0  0  0  0  0
    3.9632    1.0803   -1.7001 C   0  0  0  0  0  0  0  0  0  0  0  0
    2.4135   -0.4054    2.2942 H   0  0  0  0  0  0  0  0  0  0  0  0
    4.4500   -1.1814    3.7442 H   0  0  0  0  0  0  0  0  0  0  0  0
    8.1688    0.6595    3.5740 H   0  0  0  0  0  0  0  0  0  0  0  0
    9.0919    2.4026    1.1417 H   0  0  0  0  0  0  0  0  0  0  0  0
    8.2580    3.2918   -1.4822 H   0  0  0  0  0  0  0  0  0  0  0  0
    5.5461    2.9047   -2.2458 H   0  0  0  0  0  0  0  0  0  0  0  0
    3.5957    1.8223    0.3314 H   0  0  0  0  0  0  0  0  0  0  0  0
    0.7582   -0.3358   -2.0048 H   0  0  0  0  0  0  0  0  0  0  0  0
    1.4478    1.2074   -2.5038 H   0  0  0  0  0  0  0  0  0  0  0  0
    0.8513   -2.2498   -3.7267 H   0  0  0  0  0  0  0  0  0  0  0  0
    5.7606   -2.1292   -4.3935 H   0  0  0  0  0  0  0  0  0  0  0  0
    6.8954    0.0726   -4.7168 H   0  0  0  0  0  0  0  0  0  0  0  0
    5.5673    2.1003   -5.2061 H   0  0  0  0  0  0  0  0  0  0  0  0
    3.0848    2.0774   -4.8968 H   0  0  0  0  0  0  0  0  0  0  0  0
    3.2587   -1.9977   -2.1409 H   0  0  0  0  0  0  0  0  0  0  0  0
    2.5307   -2.1008   -0.6018 H   0  0  0  0  0  0  0  0  0  0  0  0
    4.7349   -1.7033    0.4329 H   0  0  0  0  0  0  0  0  0  0  0  0
    4.8542   -2.8924   -0.8209 H   0  0  0  0  0  0  0  0  0  0  0  0
    6.6003   -1.3168   -1.0959 H   0  0  0  0  0  0  0  0  0  0  0  0
    7.3357    0.5047    0.1307 H   0  0  0  0  0  0  0  0  0  0  0  0
    6.4409    3.6404    1.3466 H   0  0  0  0  0  0  0  0  0  0  0  0
    2.5325    3.1582   -1.5149 H   0  0  0  0  0  0  0  0  0  0  0  0
  1  2  2  0  0  0  0
  2  3  1  0  0  0  0
  2 14  1  0  0  0  0
  3  4  1  0  0  0  0
  3 35  1  0  0  0  0
  4  5  1  0  0  0  0
  4 13  2  0  0  0  0
  5  6  2  0  0  0  0
  5 36  1  0  0  0  0
  6  7  1  0  0  0  0
  7  8  2  0  0  0  0
  7 37  1  0  0  0  0
  8  9  1  0  0  0  0
  8 13  1  0  0  0  0
  9 10  2  0  0  0  0
  9 38  1  0  0  0  0
 10 11  1  0  0  0  0
 10 39  1  0  0  0  0
 11 12  2  0  0  0  0
 11 40  1  0  0  0  0
 12 13  1  0  0  0  0
 12 41  1  0  0  0  0
 14 15  1  0  0  0  0
 14 25  1  0  0  0  0
 14 34  1  0  0  0  0
 15 16  1  0  0  0  0
 15 42  1  0  0  0  0
 15 43  1  0  0  0  0
 16 17  1  0  0  0  0
 16 24  1  0  0  0  0
 17 18  2  0  0  0  0
 17 44  1  0  0  0  0
 18 19  1  0  0  0  0
 19 20  1  0  0  0  0
 19 24  2  0  0  0  0
 20 21  2  0  0  0  0
 20 45  1  0  0  0  0
 21 22  1  0  0  0  0
 21 46  1  0  0  0  0
 22 23  2  0  0  0  0
 22 47  1  0  0  0  0
 23 24  1  0  0  0  0
 23 48  1  0  0  0  0
 25 26  1  0  0  0  0
 25 49  1  0  0  0  0
 25 50  1  0  0  0  0
 26 27  1  0  0  0  0
 26 51  1  0  0  0  0
 26 52  1  0  0  0  0
 27 28  1  0  0  0  0
 27 53  1  0  0  0  0
 28 29  1  0  0  0  0
 28 34  2  0  0  0  0
 29 30  2  0  0  0  0
 29 54  1  0  0  0  0
 30 31  1  0  0  0  0
 30 55  1  0  0  0  0
 31 32  1  0  0  0  0
 31 33  2  0  0  0  0
 33 34  1  0  0  0  0
 33 56  1  0  0  0  0
M  END
$$$$
