
 OpenBabel06282218493D

 55 59  0  0  0  0  0  0  0  0999 V2000
    1.7176    0.9856    0.8265 O   0  0  0  0  0  0  0  0  0  0  0  0
    2.7281    0.4638    0.3336 C   0  0  0  0  0  0  0  0  0  0  0  0
    3.4166   -0.3523    1.1944 N   0  0  0  0  0  0  0  0  0  0  0  0
    4.8045   -0.2696    1.4413 C   0  0  0  0  0  0  0  0  0  0  0  0
    5.5403   -1.4480    1.3237 C   0  0  0  0  0  0  0  0  0  0  0  0
    6.8676   -1.5387    1.5407 N   0  0  0  0  0  0  0  0  0  0  0  0
    7.4859   -0.4037    1.9375 C   0  0  0  0  0  0  0  0  0  0  0  0
    6.8480    0.8230    2.1432 C   0  0  0  0  0  0  0  0  0  0  0  0
    7.5608    1.9538    2.5803 C   0  0  0  0  0  0  0  0  0  0  0  0
    6.9066    3.1629    2.8057 C   0  0  0  0  0  0  0  0  0  0  0  0
    5.5344    3.2509    2.6099 C   0  0  0  0  0  0  0  0  0  0  0  0
    4.8162    2.1331    2.1772 C   0  0  0  0  0  0  0  0  0  0  0  0
    5.4554    0.8987    1.9100 C   0  0  0  0  0  0  0  0  0  0  0  0
    3.1517    0.7248   -1.1493 C   0  0  0  0  0  0  0  0  0  0  0  0
    1.8084    0.7239   -2.0174 C   0  0  0  0  0  0  0  0  0  0  0  0
    0.9827   -0.4547   -2.3171 N   0  0  0  0  0  0  0  0  0  0  0  0
    0.4480   -1.2523   -1.2285 C   0  0  0  0  0  0  0  0  0  0  0  0
    1.2837   -2.5176   -1.2291 C   0  0  0  0  0  0  0  0  0  0  0  0
    1.7390   -2.6835   -2.6729 C   0  0  0  0  0  0  0  0  0  0  0  0
    1.4121   -1.3658   -3.3653 C   0  0  0  0  0  0  0  0  0  0  0  0
    4.1192   -0.3245   -1.7483 C   0  0  0  0  0  0  0  0  0  0  0  0
    5.5741    0.1094   -1.7983 C   0  0  0  0  0  0  0  0  0  0  0  0
    5.6877    1.3610   -2.5213 N   0  0  0  0  0  0  0  0  0  0  0  0
    4.9577    2.4016   -1.9238 C   0  0  0  0  0  0  0  0  0  0  0  0
    5.4003    3.7209   -2.1167 C   0  0  0  0  0  0  0  0  0  0  0  0
    4.6914    4.8034   -1.5995 C   0  0  0  0  0  0  0  0  0  0  0  0
    3.5071    4.5748   -0.9161 C   0  0  0  0  0  0  0  0  0  0  0  0
    2.6226    5.9013   -0.2703 Cl  0  0  0  0  0  0  0  0  0  0  0  0
    3.0228    3.2760   -0.7635 C   0  0  0  0  0  0  0  0  0  0  0  0
    3.7348    2.1634   -1.2679 C   0  0  0  0  0  0  0  0  0  0  0  0
    2.9027   -0.2788    2.0719 H   0  0  0  0  0  0  0  0  0  0  0  0
    5.0641   -2.3777    1.0225 H   0  0  0  0  0  0  0  0  0  0  0  0
    8.5551   -0.5147    2.1049 H   0  0  0  0  0  0  0  0  0  0  0  0
    8.6337    1.8978    2.7538 H   0  0  0  0  0  0  0  0  0  0  0  0
    7.4655    4.0323    3.1430 H   0  0  0  0  0  0  0  0  0  0  0  0
    5.0154    4.1891    2.7929 H   0  0  0  0  0  0  0  0  0  0  0  0
    3.7417    2.2467    2.0548 H   0  0  0  0  0  0  0  0  0  0  0  0
    1.1090    1.4411   -1.5659 H   0  0  0  0  0  0  0  0  0  0  0  0
    2.0471    1.1847   -2.9882 H   0  0  0  0  0  0  0  0  0  0  0  0
   -0.5909   -1.5110   -1.4706 H   0  0  0  0  0  0  0  0  0  0  0  0
    0.4148   -0.7607   -0.2560 H   0  0  0  0  0  0  0  0  0  0  0  0
    2.1517   -2.4108   -0.5713 H   0  0  0  0  0  0  0  0  0  0  0  0
    0.7134   -3.3852   -0.8824 H   0  0  0  0  0  0  0  0  0  0  0  0
    2.8098   -2.9082   -2.7140 H   0  0  0  0  0  0  0  0  0  0  0  0
    1.2070   -3.5120   -3.1537 H   0  0  0  0  0  0  0  0  0  0  0  0
    2.2303   -0.9981   -3.9906 H   0  0  0  0  0  0  0  0  0  0  0  0
    0.5681   -1.5256   -4.0482 H   0  0  0  0  0  0  0  0  0  0  0  0
    3.8558   -0.5097   -2.7931 H   0  0  0  0  0  0  0  0  0  0  0  0
    4.0382   -1.2893   -1.2416 H   0  0  0  0  0  0  0  0  0  0  0  0
    6.0320    0.2163   -0.8169 H   0  0  0  0  0  0  0  0  0  0  0  0
    6.1561   -0.6528   -2.3291 H   0  0  0  0  0  0  0  0  0  0  0  0
    6.6578    1.6270   -2.6782 H   0  0  0  0  0  0  0  0  0  0  0  0
    6.3147    3.9131   -2.6727 H   0  0  0  0  0  0  0  0  0  0  0  0
    5.0628    5.8135   -1.7446 H   0  0  0  0  0  0  0  0  0  0  0  0
    2.0703    3.1409   -0.2543 H   0  0  0  0  0  0  0  0  0  0  0  0
  1  2  2  0  0  0  0
  2  3  1  0  0  0  0
  2 14  1  0  0  0  0
  3  4  1  0  0  0  0
  3 31  1  0  0  0  0
  4  5  1  0  0  0  0
  4 13  2  0  0  0  0
  5  6  2  0  0  0  0
  5 32  1  0  0  0  0
  6  7  1  0  0  0  0
  7  8  2  0  0  0  0
  7 33  1  0  0  0  0
  8  9  1  0  0  0  0
  8 13  1  0  0  0  0
  9 10  2  0  0  0  0
  9 34  1  0  0  0  0
 10 11  1  0  0  0  0
 10 35  1  0  0  0  0
 11 12  2  0  0  0  0
 11 36  1  0  0  0  0
 12 13  1  0  0  0  0
 12 37  1  0  0  0  0
 14 15  1  0  0  0  0
 14 21  1  0  0  0  0
 14 30  1  0  0  0  0
 15 16  1  0  0  0  0
 15 38  1  0  0  0  0
 15 39  1  0  0  0  0
 16 17  1  0  0  0  0
 16 20  1  0  0  0  0
 17 18  1  0  0  0  0
 17 40  1  0  0  0  0
 17 41  1  0  0  0  0
 18 19  1  0  0  0  0
 18 42  1  0  0  0  0
 18 43  1  0  0  0  0
 19 20  1  0  0  0  0
 19 44  1  0  0  0  0
 19 45  1  0  0  0  0
 20 46  1  0  0  0  0
 20 47  1  0  0  0  0
 21 22  1  0  0  0  0
 21 48  1  0  0  0  0
 21 49  1  0  0  0  0
 22 23  1  0  0  0  0
 22 50  1  0  0  0  0
 22 51  1  0  0  0  0
 23 24  1  0  0  0  0
 23 52  1  0  0  0  0
 24 25  1  0  0  0  0
 24 30  2  0  0  0  0
 25 26  2  0  0  0  0
 25 53  1  0  0  0  0
 26 27  1  0  0  0  0
 26 54  1  0  0  0  0
 27 28  1  0  0  0  0
 27 29  2  0  0  0  0
 29 30  1  0  0  0  0
 29 55  1  0  0  0  0
M  END
$$$$
