
 OpenBabel06282218493D

 52 56  0  0  0  0  0  0  0  0999 V2000
    1.3767   -0.6056    1.0897 O   0  0  0  0  0  0  0  0  0  0  0  0
    2.3911   -0.4187    0.4089 C   0  0  0  0  0  0  0  0  0  0  0  0
    2.9614    0.8350    0.5190 N   0  0  0  0  0  0  0  0  0  0  0  0
    4.3445    1.0185    0.7745 C   0  0  0  0  0  0  0  0  0  0  0  0
    4.9429    0.4365    1.8928 C   0  0  0  0  0  0  0  0  0  0  0  0
    6.2399    0.6044    2.2287 N   0  0  0  0  0  0  0  0  0  0  0  0
    6.9760    1.3843    1.4051 C   0  0  0  0  0  0  0  0  0  0  0  0
    6.4830    2.0364    0.2712 C   0  0  0  0  0  0  0  0  0  0  0  0
    7.3055    2.8353   -0.5432 C   0  0  0  0  0  0  0  0  0  0  0  0
    6.7840    3.4807   -1.6635 C   0  0  0  0  0  0  0  0  0  0  0  0
    5.4361    3.3449   -1.9760 C   0  0  0  0  0  0  0  0  0  0  0  0
    4.6102    2.5534   -1.1747 C   0  0  0  0  0  0  0  0  0  0  0  0
    5.1172    1.8705   -0.0455 C   0  0  0  0  0  0  0  0  0  0  0  0
    2.8720   -1.4248   -0.6801 C   0  0  0  0  0  0  0  0  0  0  0  0
    2.5948   -0.7945   -2.0904 C   0  0  0  0  0  0  0  0  0  0  0  0
    1.2005   -0.8328   -2.5686 N   0  0  0  0  0  0  0  0  0  0  0  0
    0.3376    0.1886   -1.9175 C   0  0  0  0  0  0  0  0  0  0  0  0
   -0.2976    0.4235   -3.3018 C   0  0  0  0  0  0  0  0  0  0  0  0
    1.0601   -0.0676   -3.8399 C   0  0  0  0  0  0  0  0  0  0  0  0
    2.0732   -2.7476   -0.5497 C   0  0  0  0  0  0  0  0  0  0  0  0
    2.2858   -3.4366    0.7934 C   0  0  0  0  0  0  0  0  0  0  0  0
    3.6471   -3.3370    1.3029 N   0  0  0  0  0  0  0  0  0  0  0  0
    4.6441   -2.7926    0.5003 C   0  0  0  0  0  0  0  0  0  0  0  0
    5.9827   -3.1068    0.7750 C   0  0  0  0  0  0  0  0  0  0  0  0
    7.0209   -2.5539    0.0267 C   0  0  0  0  0  0  0  0  0  0  0  0
    6.7243   -1.6622   -0.9938 C   0  0  0  0  0  0  0  0  0  0  0  0
    7.9982   -0.9644   -1.9170 Cl  0  0  0  0  0  0  0  0  0  0  0  0
    5.4016   -1.3045   -1.2570 C   0  0  0  0  0  0  0  0  0  0  0  0
    4.3448   -1.8393   -0.4930 C   0  0  0  0  0  0  0  0  0  0  0  0
    2.4177    1.2849    1.2542 H   0  0  0  0  0  0  0  0  0  0  0  0
    4.3807   -0.2068    2.5656 H   0  0  0  0  0  0  0  0  0  0  0  0
    8.0197    1.4780    1.6956 H   0  0  0  0  0  0  0  0  0  0  0  0
    8.3617    2.9552   -0.3103 H   0  0  0  0  0  0  0  0  0  0  0  0
    7.4302    4.0916   -2.2890 H   0  0  0  0  0  0  0  0  0  0  0  0
    5.0255    3.8532   -2.8449 H   0  0  0  0  0  0  0  0  0  0  0  0
    3.5590    2.4686   -1.4416 H   0  0  0  0  0  0  0  0  0  0  0  0
    2.9913    0.2271   -2.1286 H   0  0  0  0  0  0  0  0  0  0  0  0
    3.1664   -1.3660   -2.8348 H   0  0  0  0  0  0  0  0  0  0  0  0
   -0.3451   -0.2050   -1.1590 H   0  0  0  0  0  0  0  0  0  0  0  0
    0.8496    1.0735   -1.5215 H   0  0  0  0  0  0  0  0  0  0  0  0
   -0.5737    1.4532   -3.5390 H   0  0  0  0  0  0  0  0  0  0  0  0
   -1.1381   -0.2426   -3.5308 H   0  0  0  0  0  0  0  0  0  0  0  0
    1.7849    0.7421   -3.9963 H   0  0  0  0  0  0  0  0  0  0  0  0
    1.0128   -0.6811   -4.7437 H   0  0  0  0  0  0  0  0  0  0  0  0
    2.3782   -3.4369   -1.3508 H   0  0  0  0  0  0  0  0  0  0  0  0
    0.9950   -2.5909   -0.6759 H   0  0  0  0  0  0  0  0  0  0  0  0
    1.6066   -3.0338    1.5517 H   0  0  0  0  0  0  0  0  0  0  0  0
    2.0220   -4.4962    0.6902 H   0  0  0  0  0  0  0  0  0  0  0  0
    3.9391   -4.1601    1.8232 H   0  0  0  0  0  0  0  0  0  0  0  0
    6.2276   -3.7910    1.5837 H   0  0  0  0  0  0  0  0  0  0  0  0
    8.0496   -2.8149    0.2559 H   0  0  0  0  0  0  0  0  0  0  0  0
    5.2181   -0.5739   -2.0395 H   0  0  0  0  0  0  0  0  0  0  0  0
  1  2  2  0  0  0  0
  2  3  1  0  0  0  0
  2 14  1  0  0  0  0
  3  4  1  0  0  0  0
  3 30  1  0  0  0  0
  4  5  1  0  0  0  0
  4 13  2  0  0  0  0
  5  6  2  0  0  0  0
  5 31  1  0  0  0  0
  6  7  1  0  0  0  0
  7  8  2  0  0  0  0
  7 32  1  0  0  0  0
  8  9  1  0  0  0  0
  8 13  1  0  0  0  0
  9 10  2  0  0  0  0
  9 33  1  0  0  0  0
 10 11  1  0  0  0  0
 10 34  1  0  0  0  0
 11 12  2  0  0  0  0
 11 35  1  0  0  0  0
 12 13  1  0  0  0  0
 12 36  1  0  0  0  0
 14 15  1  0  0  0  0
 14 20  1  0  0  0  0
 14 29  1  0  0  0  0
 15 16  1  0  0  0  0
 15 37  1  0  0  0  0
 15 38  1  0  0  0  0
 16 17  1  0  0  0  0
 16 19  1  0  0  0  0
 17 18  1  0  0  0  0
 17 39  1  0  0  0  0
 17 40  1  0  0  0  0
 18 19  1  0  0  0  0
 18 41  1  0  0  0  0
 18 42  1  0  0  0  0
 19 43  1  0  0  0  0
 19 44  1  0  0  0  0
 20 21  1  0  0  0  0
 20 45  1  0  0  0  0
 20 46  1  0  0  0  0
 21 22  1  0  0  0  0
 21 47  1  0  0  0  0
 21 48  1  0  0  0  0
 22 23  1  0  0  0  0
 22 49  1  0  0  0  0
 23 24  1  0  0  0  0
 23 29  2  0  0  0  0
 24 25  2  0  0  0  0
 24 50  1  0  0  0  0
 25 26  1  0  0  0  0
 25 51  1  0  0  0  0
 26 27  1  0  0  0  0
 26 28  2  0  0  0  0
 28 29  1  0  0  0  0
 28 52  1  0  0  0  0
M  END
$$$$
