
 OpenBabel06282218493D

 51 55  0  0  0  0  0  0  0  0999 V2000
    2.1685   -0.6955   -1.4989 O   0  0  0  0  0  0  0  0  0  0  0  0
    2.8752   -0.3927   -0.5333 C   0  0  0  0  0  0  0  0  0  0  0  0
    3.9246   -1.2480   -0.2277 N   0  0  0  0  0  0  0  0  0  0  0  0
    5.2107   -1.0137   -0.8170 C   0  0  0  0  0  0  0  0  0  0  0  0
    5.3438   -0.9473   -2.2071 C   0  0  0  0  0  0  0  0  0  0  0  0
    6.5094   -0.7181   -2.8450 N   0  0  0  0  0  0  0  0  0  0  0  0
    7.6016   -0.5615   -2.0640 C   0  0  0  0  0  0  0  0  0  0  0  0
    7.6038   -0.6519   -0.6700 C   0  0  0  0  0  0  0  0  0  0  0  0
    8.7869   -0.5020    0.0769 C   0  0  0  0  0  0  0  0  0  0  0  0
    8.7713   -0.6233    1.4650 C   0  0  0  0  0  0  0  0  0  0  0  0
    7.5783   -0.9064    2.1184 C   0  0  0  0  0  0  0  0  0  0  0  0
    6.3982   -1.0544    1.3850 C   0  0  0  0  0  0  0  0  0  0  0  0
    6.3757   -0.9099   -0.0205 C   0  0  0  0  0  0  0  0  0  0  0  0
    2.5603    0.8307    0.3896 C   0  0  0  0  0  0  0  0  0  0  0  0
    3.2226    0.7297    1.8088 C   0  0  0  0  0  0  0  0  0  0  0  0
    3.0247   -0.3247    2.8164 N   0  0  0  0  0  0  0  0  0  0  0  0
    1.8529   -0.1472    3.6994 C   0  0  0  0  0  0  0  0  0  0  0  0
    1.7831   -1.6873    3.7714 C   0  0  0  0  0  0  0  0  0  0  0  0
    2.4746   -1.6267    2.3912 C   0  0  0  0  0  0  0  0  0  0  0  0
    1.0149    0.9274    0.4658 C   0  0  0  0  0  0  0  0  0  0  0  0
    0.5577    2.1758    1.2026 C   0  0  0  0  0  0  0  0  0  0  0  0
    1.0312    3.3886    0.6236 O   0  0  0  0  0  0  0  0  0  0  0  0
    2.2288    3.3398   -0.0349 C   0  0  0  0  0  0  0  0  0  0  0  0
    2.6397    4.5790   -0.5461 C   0  0  0  0  0  0  0  0  0  0  0  0
    3.8024    4.6832   -1.3062 C   0  0  0  0  0  0  0  0  0  0  0  0
    4.5586    3.5435   -1.5442 C   0  0  0  0  0  0  0  0  0  0  0  0
    5.9846    3.6425   -2.5076 Cl  0  0  0  0  0  0  0  0  0  0  0  0
    4.1725    2.3113   -1.0046 C   0  0  0  0  0  0  0  0  0  0  0  0
    2.9951    2.1762   -0.2431 C   0  0  0  0  0  0  0  0  0  0  0  0
    3.6054   -2.1010   -0.6918 H   0  0  0  0  0  0  0  0  0  0  0  0
    4.4860   -1.0594   -2.8665 H   0  0  0  0  0  0  0  0  0  0  0  0
    8.5185   -0.3641   -2.6149 H   0  0  0  0  0  0  0  0  0  0  0  0
    9.7314   -0.2928   -0.4216 H   0  0  0  0  0  0  0  0  0  0  0  0
    9.6900   -0.5048    2.0341 H   0  0  0  0  0  0  0  0  0  0  0  0
    7.5594   -1.0123    3.2005 H   0  0  0  0  0  0  0  0  0  0  0  0
    5.4870   -1.2884    1.9294 H   0  0  0  0  0  0  0  0  0  0  0  0
    4.3054    0.7452    1.6374 H   0  0  0  0  0  0  0  0  0  0  0  0
    3.0655    1.6834    2.3334 H   0  0  0  0  0  0  0  0  0  0  0  0
    2.0618    0.3565    4.6472 H   0  0  0  0  0  0  0  0  0  0  0  0
    0.9565    0.2871    3.2522 H   0  0  0  0  0  0  0  0  0  0  0  0
    0.7836   -2.1275    3.7956 H   0  0  0  0  0  0  0  0  0  0  0  0
    2.3981   -2.1305    4.5636 H   0  0  0  0  0  0  0  0  0  0  0  0
    1.7551   -1.6289    1.5690 H   0  0  0  0  0  0  0  0  0  0  0  0
    3.2143   -2.4139    2.2218 H   0  0  0  0  0  0  0  0  0  0  0  0
    0.5707    0.0413    0.9264 H   0  0  0  0  0  0  0  0  0  0  0  0
    0.5977    0.9753   -0.5511 H   0  0  0  0  0  0  0  0  0  0  0  0
   -0.5414    2.2116    1.1794 H   0  0  0  0  0  0  0  0  0  0  0  0
    0.8469    2.1714    2.2604 H   0  0  0  0  0  0  0  0  0  0  0  0
    2.0359    5.4652   -0.3572 H   0  0  0  0  0  0  0  0  0  0  0  0
    4.1026    5.6457   -1.7107 H   0  0  0  0  0  0  0  0  0  0  0  0
    4.8190    1.4690   -1.2036 H   0  0  0  0  0  0  0  0  0  0  0  0
  1  2  2  0  0  0  0
  2  3  1  0  0  0  0
  2 14  1  0  0  0  0
  3  4  1  0  0  0  0
  3 30  1  0  0  0  0
  4  5  1  0  0  0  0
  4 13  2  0  0  0  0
  5  6  2  0  0  0  0
  5 31  1  0  0  0  0
  6  7  1  0  0  0  0
  7  8  2  0  0  0  0
  7 32  1  0  0  0  0
  8  9  1  0  0  0  0
  8 13  1  0  0  0  0
  9 10  2  0  0  0  0
  9 33  1  0  0  0  0
 10 11  1  0  0  0  0
 10 34  1  0  0  0  0
 11 12  2  0  0  0  0
 11 35  1  0  0  0  0
 12 13  1  0  0  0  0
 12 36  1  0  0  0  0
 14 15  1  0  0  0  0
 14 20  1  0  0  0  0
 14 29  1  0  0  0  0
 15 16  1  0  0  0  0
 15 37  1  0  0  0  0
 15 38  1  0  0  0  0
 16 17  1  0  0  0  0
 16 19  1  0  0  0  0
 17 18  1  0  0  0  0
 17 39  1  0  0  0  0
 17 40  1  0  0  0  0
 18 19  1  0  0  0  0
 18 41  1  0  0  0  0
 18 42  1  0  0  0  0
 19 43  1  0  0  0  0
 19 44  1  0  0  0  0
 20 21  1  0  0  0  0
 20 45  1  0  0  0  0
 20 46  1  0  0  0  0
 21 22  1  0  0  0  0
 21 47  1  0  0  0  0
 21 48  1  0  0  0  0
 22 23  1  0  0  0  0
 23 24  1  0  0  0  0
 23 29  2  0  0  0  0
 24 25  2  0  0  0  0
 24 49  1  0  0  0  0
 25 26  1  0  0  0  0
 25 50  1  0  0  0  0
 26 27  1  0  0  0  0
 26 28  2  0  0  0  0
 28 29  1  0  0  0  0
 28 51  1  0  0  0  0
M  END
$$$$
