
 OpenBabel06282218493D

 45 48  0  0  0  0  0  0  0  0999 V2000
    0.5149   -1.5734   -0.9259 N   0  0  0  0  0  0  0  0  0  0  0  0
    0.3956   -2.6641    0.0486 C   0  0  0  0  0  0  0  0  0  0  0  0
    0.8972   -2.4209    1.5238 C   0  0  0  0  0  0  0  0  0  0  0  0
    2.4146   -2.0993    1.5133 C   0  0  0  0  0  0  0  0  0  0  0  0
    3.0641   -2.0490    0.4612 O   0  0  0  0  0  0  0  0  0  0  0  0
    3.1482   -1.9488    2.6740 N   0  0  0  0  0  0  0  0  0  0  0  0
    2.7952   -0.9955    3.6692 C   0  0  0  0  0  0  0  0  0  0  0  0
    2.0460   -1.3834    4.7775 C   0  0  0  0  0  0  0  0  0  0  0  0
    1.7299   -0.5657    5.8056 N   0  0  0  0  0  0  0  0  0  0  0  0
    2.1854    0.7031    5.7247 C   0  0  0  0  0  0  0  0  0  0  0  0
    2.9604    1.2063    4.6780 C   0  0  0  0  0  0  0  0  0  0  0  0
    3.4053    2.5406    4.6703 C   0  0  0  0  0  0  0  0  0  0  0  0
    4.1758    3.0276    3.6168 C   0  0  0  0  0  0  0  0  0  0  0  0
    4.5061    2.1896    2.5595 C   0  0  0  0  0  0  0  0  0  0  0  0
    4.0684    0.8625    2.5556 C   0  0  0  0  0  0  0  0  0  0  0  0
    3.2892    0.3348    3.6157 C   0  0  0  0  0  0  0  0  0  0  0  0
    0.7497   -3.7751    2.2729 C   0  0  0  0  0  0  0  0  0  0  0  0
   -0.6968   -4.0576    2.6347 C   0  0  0  0  0  0  0  0  0  0  0  0
   -1.1984   -3.0019    3.4915 N   0  0  0  0  0  0  0  0  0  0  0  0
   -0.9913   -1.6824    3.0732 C   0  0  0  0  0  0  0  0  0  0  0  0
   -1.7206   -0.6640    3.7067 C   0  0  0  0  0  0  0  0  0  0  0  0
   -1.4923    0.6811    3.4146 C   0  0  0  0  0  0  0  0  0  0  0  0
   -0.5101    1.0226    2.4967 C   0  0  0  0  0  0  0  0  0  0  0  0
   -0.2018    2.6777    2.1448 Cl  0  0  0  0  0  0  0  0  0  0  0  0
    0.2459    0.0306    1.8754 C   0  0  0  0  0  0  0  0  0  0  0  0
    0.0349   -1.3327    2.1727 C   0  0  0  0  0  0  0  0  0  0  0  0
   -0.0198   -0.7633   -0.6197 H   0  0  0  0  0  0  0  0  0  0  0  0
    1.4969   -1.2862   -0.9699 H   0  0  0  0  0  0  0  0  0  0  0  0
   -0.6624   -2.9490    0.0555 H   0  0  0  0  0  0  0  0  0  0  0  0
    0.9371   -3.5188   -0.3768 H   0  0  0  0  0  0  0  0  0  0  0  0
    4.0970   -1.7872    2.3446 H   0  0  0  0  0  0  0  0  0  0  0  0
    1.6750   -2.3969    4.8880 H   0  0  0  0  0  0  0  0  0  0  0  0
    1.9008    1.3321    6.5649 H   0  0  0  0  0  0  0  0  0  0  0  0
    3.1501    3.2117    5.4880 H   0  0  0  0  0  0  0  0  0  0  0  0
    4.5121    4.0614    3.6193 H   0  0  0  0  0  0  0  0  0  0  0  0
    5.0996    2.5678    1.7303 H   0  0  0  0  0  0  0  0  0  0  0  0
    4.3339    0.2518    1.6953 H   0  0  0  0  0  0  0  0  0  0  0  0
    1.3430   -3.7883    3.1936 H   0  0  0  0  0  0  0  0  0  0  0  0
    1.1477   -4.5970    1.6637 H   0  0  0  0  0  0  0  0  0  0  0  0
   -1.3330   -4.1665    1.7502 H   0  0  0  0  0  0  0  0  0  0  0  0
   -0.7545   -5.0063    3.1798 H   0  0  0  0  0  0  0  0  0  0  0  0
   -2.1458   -3.1622    3.8272 H   0  0  0  0  0  0  0  0  0  0  0  0
   -2.4688   -0.9159    4.4547 H   0  0  0  0  0  0  0  0  0  0  0  0
   -2.0705    1.4485    3.9207 H   0  0  0  0  0  0  0  0  0  0  0  0
    1.0284    0.3296    1.1813 H   0  0  0  0  0  0  0  0  0  0  0  0
  1  2  1  0  0  0  0
  1 27  1  0  0  0  0
  1 28  1  0  0  0  0
  2  3  1  0  0  0  0
  2 29  1  0  0  0  0
  2 30  1  0  0  0  0
  3  4  1  0  0  0  0
  3 17  1  0  0  0  0
  3 26  1  0  0  0  0
  4  5  2  0  0  0  0
  4  6  1  0  0  0  0
  6  7  1  0  0  0  0
  6 31  1  0  0  0  0
  7  8  1  0  0  0  0
  7 16  2  0  0  0  0
  8  9  2  0  0  0  0
  8 32  1  0  0  0  0
  9 10  1  0  0  0  0
 10 11  2  0  0  0  0
 10 33  1  0  0  0  0
 11 12  1  0  0  0  0
 11 16  1  0  0  0  0
 12 13  2  0  0  0  0
 12 34  1  0  0  0  0
 13 14  1  0  0  0  0
 13 35  1  0  0  0  0
 14 15  2  0  0  0  0
 14 36  1  0  0  0  0
 15 16  1  0  0  0  0
 15 37  1  0  0  0  0
 17 18  1  0  0  0  0
 17 38  1  0  0  0  0
 17 39  1  0  0  0  0
 18 19  1  0  0  0  0
 18 40  1  0  0  0  0
 18 41  1  0  0  0  0
 19 20  1  0  0  0  0
 19 42  1  0  0  0  0
 20 21  1  0  0  0  0
 20 26  2  0  0  0  0
 21 22  2  0  0  0  0
 21 43  1  0  0  0  0
 22 23  1  0  0  0  0
 22 44  1  0  0  0  0
 23 24  1  0  0  0  0
 23 25  2  0  0  0  0
 25 26  1  0  0  0  0
 25 45  1  0  0  0  0
M  END
$$$$
