
 OpenBabel06282218493D

 49 53  0  0  0  0  0  0  0  0999 V2000
    1.7744    0.4722   -0.3005 O   0  0  0  0  0  0  0  0  0  0  0  0
    2.6598   -0.3654   -0.1033 C   0  0  0  0  0  0  0  0  0  0  0  0
    3.3189   -0.8802   -1.2026 N   0  0  0  0  0  0  0  0  0  0  0  0
    4.5631   -0.2870   -1.6004 C   0  0  0  0  0  0  0  0  0  0  0  0
    4.7755    1.0887   -1.4993 C   0  0  0  0  0  0  0  0  0  0  0  0
    5.9015    1.7196   -1.8978 N   0  0  0  0  0  0  0  0  0  0  0  0
    6.8642    0.9385   -2.4345 C   0  0  0  0  0  0  0  0  0  0  0  0
    6.7588   -0.4424   -2.6182 C   0  0  0  0  0  0  0  0  0  0  0  0
    7.7969   -1.1913   -3.2005 C   0  0  0  0  0  0  0  0  0  0  0  0
    7.6627   -2.5660   -3.3866 C   0  0  0  0  0  0  0  0  0  0  0  0
    6.4894   -3.2044   -3.0016 C   0  0  0  0  0  0  0  0  0  0  0  0
    5.4516   -2.4697   -2.4229 C   0  0  0  0  0  0  0  0  0  0  0  0
    5.5656   -1.0776   -2.2065 C   0  0  0  0  0  0  0  0  0  0  0  0
    2.9776   -0.9391    1.3089 C   0  0  0  0  0  0  0  0  0  0  0  0
    3.4074    0.2604    2.2236 C   0  0  0  0  0  0  0  0  0  0  0  0
    4.7990    0.7012    2.0020 N   0  0  0  0  0  0  0  0  0  0  0  0
    4.9480    2.1222    1.6874 C   0  0  0  0  0  0  0  0  0  0  0  0
    5.2660    1.6069    3.0571 C   0  0  0  0  0  0  0  0  0  0  0  0
    4.0987   -2.0075    1.3453 C   0  0  0  0  0  0  0  0  0  0  0  0
    3.6159   -3.3424    0.8150 C   0  0  0  0  0  0  0  0  0  0  0  0
    2.5412   -3.8646    1.6366 N   0  0  0  0  0  0  0  0  0  0  0  0
    1.5495   -2.9610    2.0313 C   0  0  0  0  0  0  0  0  0  0  0  0
    0.3845   -3.4956    2.6053 C   0  0  0  0  0  0  0  0  0  0  0  0
   -0.6721   -2.6749    2.9961 C   0  0  0  0  0  0  0  0  0  0  0  0
   -0.5707   -1.3042    2.8110 C   0  0  0  0  0  0  0  0  0  0  0  0
   -1.8728   -0.2795    3.2746 Cl  0  0  0  0  0  0  0  0  0  0  0  0
    0.5837   -0.7525    2.2556 C   0  0  0  0  0  0  0  0  0  0  0  0
    1.6735   -1.5674    1.8745 C   0  0  0  0  0  0  0  0  0  0  0  0
    2.6814   -0.6899   -1.9768 H   0  0  0  0  0  0  0  0  0  0  0  0
    4.0139    1.7533   -1.0997 H   0  0  0  0  0  0  0  0  0  0  0  0
    7.7587    1.4783   -2.7364 H   0  0  0  0  0  0  0  0  0  0  0  0
    8.7183   -0.7050   -3.5150 H   0  0  0  0  0  0  0  0  0  0  0  0
    8.4715   -3.1363   -3.8365 H   0  0  0  0  0  0  0  0  0  0  0  0
    6.3780   -4.2755   -3.1515 H   0  0  0  0  0  0  0  0  0  0  0  0
    4.5439   -2.9976   -2.1424 H   0  0  0  0  0  0  0  0  0  0  0  0
    2.7078    1.0984    2.1097 H   0  0  0  0  0  0  0  0  0  0  0  0
    3.3224   -0.0672    3.2705 H   0  0  0  0  0  0  0  0  0  0  0  0
    5.7825    2.3806    1.0445 H   0  0  0  0  0  0  0  0  0  0  0  0
    4.0626    2.7299    1.5490 H   0  0  0  0  0  0  0  0  0  0  0  0
    4.5934    1.8612    3.8675 H   0  0  0  0  0  0  0  0  0  0  0  0
    6.3083    1.5069    3.3344 H   0  0  0  0  0  0  0  0  0  0  0  0
    4.4370   -2.1539    2.3816 H   0  0  0  0  0  0  0  0  0  0  0  0
    4.9806   -1.6917    0.7791 H   0  0  0  0  0  0  0  0  0  0  0  0
    3.2657   -3.2746   -0.2183 H   0  0  0  0  0  0  0  0  0  0  0  0
    4.4420   -4.0624    0.8176 H   0  0  0  0  0  0  0  0  0  0  0  0
    2.8613   -4.4234    2.4259 H   0  0  0  0  0  0  0  0  0  0  0  0
    0.2889   -4.5727    2.7244 H   0  0  0  0  0  0  0  0  0  0  0  0
   -1.5680   -3.1131    3.4255 H   0  0  0  0  0  0  0  0  0  0  0  0
    0.6206    0.3248    2.1090 H   0  0  0  0  0  0  0  0  0  0  0  0
  1  2  2  0  0  0  0
  2  3  1  0  0  0  0
  2 14  1  0  0  0  0
  3  4  1  0  0  0  0
  3 29  1  0  0  0  0
  4  5  1  0  0  0  0
  4 13  2  0  0  0  0
  5  6  2  0  0  0  0
  5 30  1  0  0  0  0
  6  7  1  0  0  0  0
  7  8  2  0  0  0  0
  7 31  1  0  0  0  0
  8  9  1  0  0  0  0
  8 13  1  0  0  0  0
  9 10  2  0  0  0  0
  9 32  1  0  0  0  0
 10 11  1  0  0  0  0
 10 33  1  0  0  0  0
 11 12  2  0  0  0  0
 11 34  1  0  0  0  0
 12 13  1  0  0  0  0
 12 35  1  0  0  0  0
 14 15  1  0  0  0  0
 14 19  1  0  0  0  0
 14 28  1  0  0  0  0
 15 16  1  0  0  0  0
 15 36  1  0  0  0  0
 15 37  1  0  0  0  0
 16 17  1  0  0  0  0
 16 18  1  0  0  0  0
 17 18  1  0  0  0  0
 17 38  1  0  0  0  0
 17 39  1  0  0  0  0
 18 40  1  0  0  0  0
 18 41  1  0  0  0  0
 19 20  1  0  0  0  0
 19 42  1  0  0  0  0
 19 43  1  0  0  0  0
 20 21  1  0  0  0  0
 20 44  1  0  0  0  0
 20 45  1  0  0  0  0
 21 22  1  0  0  0  0
 21 46  1  0  0  0  0
 22 23  1  0  0  0  0
 22 28  2  0  0  0  0
 23 24  2  0  0  0  0
 23 47  1  0  0  0  0
 24 25  1  0  0  0  0
 24 48  1  0  0  0  0
 25 26  1  0  0  0  0
 25 27  2  0  0  0  0
 27 28  1  0  0  0  0
 27 49  1  0  0  0  0
M  END
$$$$
