
 OpenBabel06282218493D

 61 65  0  0  0  0  0  0  0  0999 V2000
    1.5445    0.8734   -0.2386 O   0  0  0  0  0  0  0  0  0  0  0  0
    2.3913    0.0759    0.1727 C   0  0  0  0  0  0  0  0  0  0  0  0
    2.8239   -0.8873   -0.7183 N   0  0  0  0  0  0  0  0  0  0  0  0
    4.1299   -0.7799   -1.2879 C   0  0  0  0  0  0  0  0  0  0  0  0
    4.5739    0.4293   -1.8295 C   0  0  0  0  0  0  0  0  0  0  0  0
    5.7696    0.5988   -2.4327 N   0  0  0  0  0  0  0  0  0  0  0  0
    6.5652   -0.4930   -2.4933 C   0  0  0  0  0  0  0  0  0  0  0  0
    6.2215   -1.7608   -2.0134 C   0  0  0  0  0  0  0  0  0  0  0  0
    7.0943   -2.8582   -2.1247 C   0  0  0  0  0  0  0  0  0  0  0  0
    6.7182   -4.1163   -1.6560 C   0  0  0  0  0  0  0  0  0  0  0  0
    5.4658   -4.2938   -1.0788 C   0  0  0  0  0  0  0  0  0  0  0  0
    4.5923   -3.2104   -0.9600 C   0  0  0  0  0  0  0  0  0  0  0  0
    4.9546   -1.9200   -1.4100 C   0  0  0  0  0  0  0  0  0  0  0  0
    2.9264    0.0749    1.6440 C   0  0  0  0  0  0  0  0  0  0  0  0
    4.2499    0.9041    1.7595 C   0  0  0  0  0  0  0  0  0  0  0  0
    5.4619    0.2174    1.3281 N   0  0  0  0  0  0  0  0  0  0  0  0
    6.6489    1.0538    1.1379 C   0  0  0  0  0  0  0  0  0  0  0  0
    7.4944    1.3667    2.3903 C   0  0  0  0  0  0  0  0  0  0  0  0
    8.9309    1.7507    1.9656 C   0  0  0  0  0  0  0  0  0  0  0  0
    9.5920    0.6360    1.3740 O   0  0  0  0  0  0  0  0  0  0  0  0
    6.9256    2.4604    3.3521 C   0  0  0  0  0  0  0  0  0  0  0  0
    7.4287    1.6233    4.5436 C   0  0  0  0  0  0  0  0  0  0  0  0
    7.4461    0.3933    3.6188 C   0  0  0  0  0  0  0  0  0  0  0  0
    3.1591   -1.3595    2.1693 C   0  0  0  0  0  0  0  0  0  0  0  0
    1.8330   -2.0617    2.3841 C   0  0  0  0  0  0  0  0  0  0  0  0
    1.0968   -1.4498    3.4380 O   0  0  0  0  0  0  0  0  0  0  0  0
    1.0182   -0.0865    3.3608 C   0  0  0  0  0  0  0  0  0  0  0  0
    0.0539    0.4908    4.1935 C   0  0  0  0  0  0  0  0  0  0  0  0
   -0.1330    1.8712    4.2069 C   0  0  0  0  0  0  0  0  0  0  0  0
    0.6480    2.6726    3.3831 C   0  0  0  0  0  0  0  0  0  0  0  0
    0.4145    4.3775    3.3796 Cl  0  0  0  0  0  0  0  0  0  0  0  0
    1.6229    2.1044    2.5603 C   0  0  0  0  0  0  0  0  0  0  0  0
    1.8409    0.7102    2.5487 C   0  0  0  0  0  0  0  0  0  0  0  0
    2.1682   -0.7839   -1.4938 H   0  0  0  0  0  0  0  0  0  0  0  0
    3.9582    1.3244   -1.7974 H   0  0  0  0  0  0  0  0  0  0  0  0
    7.5288   -0.3154   -2.9652 H   0  0  0  0  0  0  0  0  0  0  0  0
    8.0749   -2.7370   -2.5807 H   0  0  0  0  0  0  0  0  0  0  0  0
    7.4010   -4.9572   -1.7471 H   0  0  0  0  0  0  0  0  0  0  0  0
    5.1665   -5.2750   -0.7189 H   0  0  0  0  0  0  0  0  0  0  0  0
    3.6184   -3.3790   -0.5062 H   0  0  0  0  0  0  0  0  0  0  0  0
    4.1408    1.8280    1.1781 H   0  0  0  0  0  0  0  0  0  0  0  0
    4.3797    1.1885    2.8087 H   0  0  0  0  0  0  0  0  0  0  0  0
    5.6763   -0.6110    1.8762 H   0  0  0  0  0  0  0  0  0  0  0  0
    7.2701    0.4912    0.4316 H   0  0  0  0  0  0  0  0  0  0  0  0
    6.3908    1.9829    0.6143 H   0  0  0  0  0  0  0  0  0  0  0  0
    8.9082    2.5596    1.2272 H   0  0  0  0  0  0  0  0  0  0  0  0
    9.5417    2.0931    2.8077 H   0  0  0  0  0  0  0  0  0  0  0  0
    9.7705   -0.0105    2.0770 H   0  0  0  0  0  0  0  0  0  0  0  0
    7.3717    3.4570    3.2691 H   0  0  0  0  0  0  0  0  0  0  0  0
    5.8410    2.5894    3.3449 H   0  0  0  0  0  0  0  0  0  0  0  0
    6.7476    1.5603    5.3964 H   0  0  0  0  0  0  0  0  0  0  0  0
    8.4195    1.9167    4.9078 H   0  0  0  0  0  0  0  0  0  0  0  0
    6.5368   -0.2068    3.7257 H   0  0  0  0  0  0  0  0  0  0  0  0
    8.3032   -0.2732    3.7497 H   0  0  0  0  0  0  0  0  0  0  0  0
    3.6893   -1.3165    3.1315 H   0  0  0  0  0  0  0  0  0  0  0  0
    3.7780   -1.9520    1.4924 H   0  0  0  0  0  0  0  0  0  0  0  0
    1.2172   -2.0943    1.4778 H   0  0  0  0  0  0  0  0  0  0  0  0
    2.0165   -3.0994    2.6829 H   0  0  0  0  0  0  0  0  0  0  0  0
   -0.5612   -0.1439    4.8268 H   0  0  0  0  0  0  0  0  0  0  0  0
   -0.8911    2.3087    4.8499 H   0  0  0  0  0  0  0  0  0  0  0  0
    2.1966    2.7593    1.9085 H   0  0  0  0  0  0  0  0  0  0  0  0
  1  2  2  0  0  0  0
  2  3  1  0  0  0  0
  2 14  1  0  0  0  0
  3  4  1  0  0  0  0
  3 34  1  0  0  0  0
  4  5  1  0  0  0  0
  4 13  2  0  0  0  0
  5  6  2  0  0  0  0
  5 35  1  0  0  0  0
  6  7  1  0  0  0  0
  7  8  2  0  0  0  0
  7 36  1  0  0  0  0
  8  9  1  0  0  0  0
  8 13  1  0  0  0  0
  9 10  2  0  0  0  0
  9 37  1  0  0  0  0
 10 11  1  0  0  0  0
 10 38  1  0  0  0  0
 11 12  2  0  0  0  0
 11 39  1  0  0  0  0
 12 13  1  0  0  0  0
 12 40  1  0  0  0  0
 14 15  1  0  0  0  0
 14 24  1  0  0  0  0
 14 33  1  0  0  0  0
 15 16  1  0  0  0  0
 15 41  1  0  0  0  0
 15 42  1  0  0  0  0
 16 17  1  0  0  0  0
 16 43  1  0  0  0  0
 17 18  1  0  0  0  0
 17 44  1  0  0  0  0
 17 45  1  0  0  0  0
 18 19  1  0  0  0  0
 18 21  1  0  0  0  0
 18 23  1  0  0  0  0
 19 20  1  0  0  0  0
 19 46  1  0  0  0  0
 19 47  1  0  0  0  0
 20 48  1  0  0  0  0
 21 22  1  0  0  0  0
 21 49  1  0  0  0  0
 21 50  1  0  0  0  0
 22 23  1  0  0  0  0
 22 51  1  0  0  0  0
 22 52  1  0  0  0  0
 23 53  1  0  0  0  0
 23 54  1  0  0  0  0
 24 25  1  0  0  0  0
 24 55  1  0  0  0  0
 24 56  1  0  0  0  0
 25 26  1  0  0  0  0
 25 57  1  0  0  0  0
 25 58  1  0  0  0  0
 26 27  1  0  0  0  0
 27 28  1  0  0  0  0
 27 33  2  0  0  0  0
 28 29  2  0  0  0  0
 28 59  1  0  0  0  0
 29 30  1  0  0  0  0
 29 60  1  0  0  0  0
 30 31  1  0  0  0  0
 30 32  2  0  0  0  0
 32 33  1  0  0  0  0
 32 61  1  0  0  0  0
M  END
$$$$
