
 OpenBabel06282218493D

 53 57  0  0  0  0  0  0  0  0999 V2000
    1.8197   -0.9025    0.8245 O   0  0  0  0  0  0  0  0  0  0  0  0
    2.6365   -0.2072    0.2081 C   0  0  0  0  0  0  0  0  0  0  0  0
    3.0945    0.9337    0.8713 N   0  0  0  0  0  0  0  0  0  0  0  0
    4.4448    0.9001    1.3549 C   0  0  0  0  0  0  0  0  0  0  0  0
    4.8206   -0.0230    2.3467 C   0  0  0  0  0  0  0  0  0  0  0  0
    6.0807   -0.4484    2.6919 N   0  0  0  0  0  0  0  0  0  0  0  0
    7.1522   -0.0424    1.9623 C   0  0  0  0  0  0  0  0  0  0  0  0
    7.0884    0.8473    0.9024 C   0  0  0  0  0  0  0  0  0  0  0  0
    8.4655    1.3370   -0.2165 C   0  0  0  0  0  0  0  0  0  0  0  0
    8.1572    2.4354   -1.6393 C   0  0  0  0  0  0  0  0  0  0  0  0
    6.5250    3.1855   -1.8611 C   0  0  0  0  0  0  0  0  0  0  0  0
    5.1949    2.8327   -0.6638 C   0  0  0  0  0  0  0  0  0  0  0  0
    5.4415    1.5577    0.6475 C   0  0  0  0  0  0  0  0  0  0  0  0
    2.9617   -0.4764   -1.3104 C   0  0  0  0  0  0  0  0  0  0  0  0
    2.1378    0.5722   -2.1142 C   0  0  0  0  0  0  0  0  0  0  0  0
    0.6881    0.3330   -2.0599 N   0  0  0  0  0  0  0  0  0  0  0  0
   -0.0756    1.4649   -2.3564 C   0  0  0  0  0  0  0  0  0  0  0  0
    0.0302    2.1393   -3.5675 C   0  0  0  0  0  0  0  0  0  0  0  0
   -0.7545    3.2699   -3.7832 C   0  0  0  0  0  0  0  0  0  0  0  0
   -1.6270    3.6888   -2.7883 C   0  0  0  0  0  0  0  0  0  0  0  0
   -1.6775    2.9512   -1.6192 C   0  0  0  0  0  0  0  0  0  0  0  0
   -0.9215    1.8553   -1.3862 N   0  0  0  0  0  0  0  0  0  0  0  0
    2.4970   -1.9021   -1.6982 C   0  0  0  0  0  0  0  0  0  0  0  0
    3.4312   -2.9417   -1.0958 C   0  0  0  0  0  0  0  0  0  0  0  0
    4.7632   -2.8258   -1.5993 O   0  0  0  0  0  0  0  0  0  0  0  0
    5.2509   -1.5550   -1.6180 C   0  0  0  0  0  0  0  0  0  0  0  0
    6.6209   -1.4113   -1.7408 C   0  0  0  0  0  0  0  0  0  0  0  0
    7.2280   -0.1471   -1.5382 C   0  0  0  0  0  0  0  0  0  0  0  0
    6.4880    1.1031   -1.2035 C   0  0  0  0  0  0  0  0  0  0  0  0
    7.1399    2.9812    0.2677 Cl  0  0  0  0  0  0  0  0  0  0  0  0
    5.1221    0.8176   -1.7406 C   0  0  0  0  0  0  0  0  0  0  0  0
    4.4647   -0.4212   -1.6057 C   0  0  0  0  0  0  0  0  0  0  0  0
    2.4893    0.9456    1.6936 H   0  0  0  0  0  0  0  0  0  0  0  0
    4.0438   -0.5466    2.9067 H   0  0  0  0  0  0  0  0  0  0  0  0
    8.0979   -0.4917    2.2492 H   0  0  0  0  0  0  0  0  0  0  0  0
    9.4677    0.9524   -0.0313 H   0  0  0  0  0  0  0  0  0  0  0  0
    8.9769    2.7108   -2.2986 H   0  0  0  0  0  0  0  0  0  0  0  0
    6.3611    3.9073   -2.6575 H   0  0  0  0  0  0  0  0  0  0  0  0
    4.2179    3.3034   -0.7743 H   0  0  0  0  0  0  0  0  0  0  0  0
    2.3487    1.5797   -1.7317 H   0  0  0  0  0  0  0  0  0  0  0  0
    2.4526    0.5487   -3.1661 H   0  0  0  0  0  0  0  0  0  0  0  0
    0.3643    0.0827   -1.1205 H   0  0  0  0  0  0  0  0  0  0  0  0
    0.6999    1.7850   -4.3425 H   0  0  0  0  0  0  0  0  0  0  0  0
   -0.6900    3.8108   -4.7225 H   0  0  0  0  0  0  0  0  0  0  0  0
   -2.2570    4.5607   -2.9220 H   0  0  0  0  0  0  0  0  0  0  0  0
   -2.3482    3.2281   -0.8108 H   0  0  0  0  0  0  0  0  0  0  0  0
    2.5124   -2.0073   -2.7919 H   0  0  0  0  0  0  0  0  0  0  0  0
    1.4730   -2.1060   -1.3654 H   0  0  0  0  0  0  0  0  0  0  0  0
    3.4592   -2.8935   -0.0009 H   0  0  0  0  0  0  0  0  0  0  0  0
    3.0760   -3.9435   -1.3607 H   0  0  0  0  0  0  0  0  0  0  0  0
    7.2469   -2.2895   -1.8819 H   0  0  0  0  0  0  0  0  0  0  0  0
    8.3125   -0.2251   -1.6180 H   0  0  0  0  0  0  0  0  0  0  0  0
    4.4728    1.6005   -2.1240 H   0  0  0  0  0  0  0  0  0  0  0  0
  1  2  2  0  0  0  0
  2  3  1  0  0  0  0
  2 14  1  0  0  0  0
  3  4  1  0  0  0  0
  3 33  1  0  0  0  0
  4  5  1  0  0  0  0
  4 13  2  0  0  0  0
  5  6  2  0  0  0  0
  5 34  1  0  0  0  0
  6  7  1  0  0  0  0
  7  8  2  0  0  0  0
  7 35  1  0  0  0  0
  8  9  1  0  0  0  0
  8 13  1  0  0  0  0
  9 10  2  0  0  0  0
  9 36  1  0  0  0  0
 10 11  1  0  0  0  0
 10 37  1  0  0  0  0
 11 12  2  0  0  0  0
 11 38  1  0  0  0  0
 12 13  1  0  0  0  0
 12 39  1  0  0  0  0
 14 15  1  0  0  0  0
 14 23  1  0  0  0  0
 14 32  1  0  0  0  0
 15 16  1  0  0  0  0
 15 40  1  0  0  0  0
 15 41  1  0  0  0  0
 16 17  1  0  0  0  0
 16 42  1  0  0  0  0
 17 18  1  0  0  0  0
 17 22  2  0  0  0  0
 18 19  2  0  0  0  0
 18 43  1  0  0  0  0
 19 20  1  0  0  0  0
 19 44  1  0  0  0  0
 20 21  2  0  0  0  0
 20 45  1  0  0  0  0
 21 22  1  0  0  0  0
 21 46  1  0  0  0  0
 23 24  1  0  0  0  0
 23 47  1  0  0  0  0
 23 48  1  0  0  0  0
 24 25  1  0  0  0  0
 24 49  1  0  0  0  0
 24 50  1  0  0  0  0
 25 26  1  0  0  0  0
 26 27  1  0  0  0  0
 26 32  2  0  0  0  0
 27 28  2  0  0  0  0
 27 51  1  0  0  0  0
 28 29  1  0  0  0  0
 28 52  1  0  0  0  0
 29 30  1  0  0  0  0
 29 31  2  0  0  0  0
 31 32  1  0  0  0  0
 31 53  1  0  0  0  0
M  END
$$$$
