
 OpenBabel06282218493D

 51 55  0  0  0  0  0  0  0  0999 V2000
    2.7942   -0.8605   -1.7310 O   0  0  0  0  0  0  0  0  0  0  0  0
    3.3371   -0.5069   -0.6824 C   0  0  0  0  0  0  0  0  0  0  0  0
    4.5410   -1.1018   -0.3209 N   0  0  0  0  0  0  0  0  0  0  0  0
    5.7429   -0.6921   -0.9947 C   0  0  0  0  0  0  0  0  0  0  0  0
    5.8140   -0.6740   -2.3905 C   0  0  0  0  0  0  0  0  0  0  0  0
    6.8992   -0.2776   -3.0880 N   0  0  0  0  0  0  0  0  0  0  0  0
    7.9721    0.1111   -2.3637 C   0  0  0  0  0  0  0  0  0  0  0  0
    8.0335    0.1084   -0.9680 C   0  0  0  0  0  0  0  0  0  0  0  0
    9.1918    0.5137   -0.2797 C   0  0  0  0  0  0  0  0  0  0  0  0
    9.2367    0.4929    1.1138 C   0  0  0  0  0  0  0  0  0  0  0  0
    8.1263    0.0693    1.8333 C   0  0  0  0  0  0  0  0  0  0  0  0
    6.9691   -0.3275    1.1579 C   0  0  0  0  0  0  0  0  0  0  0  0
    6.8905   -0.3161   -0.2538 C   0  0  0  0  0  0  0  0  0  0  0  0
    2.6984    0.5214    0.2902 C   0  0  0  0  0  0  0  0  0  0  0  0
    2.9346    0.0930    1.7755 C   0  0  0  0  0  0  0  0  0  0  0  0
    2.1194   -1.0615    2.1844 N   0  0  0  0  0  0  0  0  0  0  0  0
    2.5625   -2.3411    2.1591 C   0  0  0  0  0  0  0  0  0  0  0  0
    3.8092   -2.9226    2.1940 C   0  0  0  0  0  0  0  0  0  0  0  0
    3.5716   -4.3093    2.1167 C   0  0  0  0  0  0  0  0  0  0  0  0
    2.2719   -4.6003    2.0486 N   0  0  0  0  0  0  0  0  0  0  0  0
    1.6799   -3.3949    2.1114 N   0  0  0  0  0  0  0  0  0  0  0  0
    1.1826    0.5599   -0.0463 C   0  0  0  0  0  0  0  0  0  0  0  0
    0.4218    1.5189    0.8584 C   0  0  0  0  0  0  0  0  0  0  0  0
    1.0637    2.7636    1.1310 O   0  0  0  0  0  0  0  0  0  0  0  0
    2.2683    2.9986    0.5315 C   0  0  0  0  0  0  0  0  0  0  0  0
    2.6080    4.3510    0.4071 C   0  0  0  0  0  0  0  0  0  0  0  0
    3.7890    4.7257   -0.2275 C   0  0  0  0  0  0  0  0  0  0  0  0
    4.6272    3.7386   -0.7269 C   0  0  0  0  0  0  0  0  0  0  0  0
    6.0788    4.1804   -1.5431 Cl  0  0  0  0  0  0  0  0  0  0  0  0
    4.3009    2.3849   -0.5781 C   0  0  0  0  0  0  0  0  0  0  0  0
    3.1239    1.9816    0.0709 C   0  0  0  0  0  0  0  0  0  0  0  0
    4.3895   -2.0460   -0.6854 H   0  0  0  0  0  0  0  0  0  0  0  0
    4.9717   -0.9737   -3.0096 H   0  0  0  0  0  0  0  0  0  0  0  0
    8.8203    0.4358   -2.9631 H   0  0  0  0  0  0  0  0  0  0  0  0
   10.0696    0.8470   -0.8302 H   0  0  0  0  0  0  0  0  0  0  0  0
   10.1385    0.8044    1.6356 H   0  0  0  0  0  0  0  0  0  0  0  0
    8.1559    0.0462    2.9206 H   0  0  0  0  0  0  0  0  0  0  0  0
    6.1228   -0.6527    1.7528 H   0  0  0  0  0  0  0  0  0  0  0  0
    3.9946   -0.0814    1.9782 H   0  0  0  0  0  0  0  0  0  0  0  0
    2.6676    0.9143    2.4539 H   0  0  0  0  0  0  0  0  0  0  0  0
    1.1285   -0.8599    2.2992 H   0  0  0  0  0  0  0  0  0  0  0  0
    4.7649   -2.4288    2.2739 H   0  0  0  0  0  0  0  0  0  0  0  0
    4.2885   -5.1205    2.1080 H   0  0  0  0  0  0  0  0  0  0  0  0
    0.6683   -3.3592    2.0851 H   0  0  0  0  0  0  0  0  0  0  0  0
    0.7235   -0.4361   -0.0012 H   0  0  0  0  0  0  0  0  0  0  0  0
    1.0472    0.8975   -1.0850 H   0  0  0  0  0  0  0  0  0  0  0  0
   -0.5544    1.7421    0.4119 H   0  0  0  0  0  0  0  0  0  0  0  0
    0.2096    1.0495    1.8247 H   0  0  0  0  0  0  0  0  0  0  0  0
    1.9339    5.1135    0.7902 H   0  0  0  0  0  0  0  0  0  0  0  0
    4.0393    5.7769   -0.3414 H   0  0  0  0  0  0  0  0  0  0  0  0
    4.9865    1.6733   -1.0100 H   0  0  0  0  0  0  0  0  0  0  0  0
  1  2  2  0  0  0  0
  2  3  1  0  0  0  0
  2 14  1  0  0  0  0
  3  4  1  0  0  0  0
  3 32  1  0  0  0  0
  4  5  1  0  0  0  0
  4 13  2  0  0  0  0
  5  6  2  0  0  0  0
  5 33  1  0  0  0  0
  6  7  1  0  0  0  0
  7  8  2  0  0  0  0
  7 34  1  0  0  0  0
  8  9  1  0  0  0  0
  8 13  1  0  0  0  0
  9 10  2  0  0  0  0
  9 35  1  0  0  0  0
 10 11  1  0  0  0  0
 10 36  1  0  0  0  0
 11 12  2  0  0  0  0
 11 37  1  0  0  0  0
 12 13  1  0  0  0  0
 12 38  1  0  0  0  0
 14 15  1  0  0  0  0
 14 22  1  0  0  0  0
 14 31  1  0  0  0  0
 15 16  1  0  0  0  0
 15 39  1  0  0  0  0
 15 40  1  0  0  0  0
 16 17  1  0  0  0  0
 16 41  1  0  0  0  0
 17 18  2  0  0  0  0
 17 21  1  0  0  0  0
 18 19  1  0  0  0  0
 18 42  1  0  0  0  0
 19 20  2  0  0  0  0
 19 43  1  0  0  0  0
 20 21  1  0  0  0  0
 21 44  1  0  0  0  0
 22 23  1  0  0  0  0
 22 45  1  0  0  0  0
 22 46  1  0  0  0  0
 23 24  1  0  0  0  0
 23 47  1  0  0  0  0
 23 48  1  0  0  0  0
 24 25  1  0  0  0  0
 25 26  1  0  0  0  0
 25 31  2  0  0  0  0
 26 27  2  0  0  0  0
 26 49  1  0  0  0  0
 27 28  1  0  0  0  0
 27 50  1  0  0  0  0
 28 29  1  0  0  0  0
 28 30  2  0  0  0  0
 30 31  1  0  0  0  0
 30 51  1  0  0  0  0
M  END
$$$$
