
 OpenBabel06282218493D

 56 59  0  0  0  0  0  0  0  0999 V2000
    1.2520    0.8547   -0.3002 C   0  0  0  0  0  0  0  0  0  0  0  0
    0.7916    2.4081    0.4410 S   0  0  0  0  0  0  0  0  0  0  0  0
    1.2547    3.4428   -0.4723 O   0  0  0  0  0  0  0  0  0  0  0  0
   -0.6096    2.3627    0.8102 O   0  0  0  0  0  0  0  0  0  0  0  0
    1.7960    2.5445    1.9142 C   0  0  0  0  0  0  0  0  0  0  0  0
    1.2198    1.8784    3.1596 C   0  0  0  0  0  0  0  0  0  0  0  0
    1.5322    0.4484    3.2195 N   0  0  0  0  0  0  0  0  0  0  0  0
    0.9443   -0.2579    4.3797 C   0  0  0  0  0  0  0  0  0  0  0  0
   -0.6334   -0.4107    4.5051 C   0  0  0  0  0  0  0  0  0  0  0  0
   -1.3119   -0.2113    3.1207 C   0  0  0  0  0  0  0  0  0  0  0  0
   -0.6788   -0.2982    2.0643 O   0  0  0  0  0  0  0  0  0  0  0  0
   -2.6827    0.0150    3.0574 N   0  0  0  0  0  0  0  0  0  0  0  0
   -3.4393   -1.1876    2.8396 C   0  0  0  0  0  0  0  0  0  0  0  0
   -4.0523   -1.8013    3.9274 C   0  0  0  0  0  0  0  0  0  0  0  0
   -4.5684   -3.0467    3.8926 N   0  0  0  0  0  0  0  0  0  0  0  0
   -4.4326   -3.7175    2.7252 C   0  0  0  0  0  0  0  0  0  0  0  0
   -3.8792   -3.1877    1.5548 C   0  0  0  0  0  0  0  0  0  0  0  0
   -3.7420   -3.9537    0.3818 C   0  0  0  0  0  0  0  0  0  0  0  0
   -3.2056   -3.3966   -0.7790 C   0  0  0  0  0  0  0  0  0  0  0  0
   -2.8228   -2.0631   -0.7906 C   0  0  0  0  0  0  0  0  0  0  0  0
   -2.9295   -1.3030    0.3739 C   0  0  0  0  0  0  0  0  0  0  0  0
   -3.4231   -1.8554    1.5850 C   0  0  0  0  0  0  0  0  0  0  0  0
   -1.1702    0.6485    5.4968 C   0  0  0  0  0  0  0  0  0  0  0  0
   -0.9196    0.2089    6.9304 C   0  0  0  0  0  0  0  0  0  0  0  0
   -1.6308   -0.9892    7.2318 O   0  0  0  0  0  0  0  0  0  0  0  0
   -1.4153   -2.0063    6.3440 C   0  0  0  0  0  0  0  0  0  0  0  0
   -1.7638   -3.2817    6.7970 C   0  0  0  0  0  0  0  0  0  0  0  0
   -1.6092   -4.3924    5.9679 C   0  0  0  0  0  0  0  0  0  0  0  0
   -1.1028   -4.2233    4.6843 C   0  0  0  0  0  0  0  0  0  0  0  0
   -0.9239   -5.5840    3.6465 Cl  0  0  0  0  0  0  0  0  0  0  0  0
   -0.7574   -2.9518    4.2239 C   0  0  0  0  0  0  0  0  0  0  0  0
   -0.9326   -1.8157    5.0428 C   0  0  0  0  0  0  0  0  0  0  0  0
    0.7854    0.8023   -1.2870 H   0  0  0  0  0  0  0  0  0  0  0  0
    0.9060    0.0202    0.3019 H   0  0  0  0  0  0  0  0  0  0  0  0
    2.3377    0.8234   -0.4074 H   0  0  0  0  0  0  0  0  0  0  0  0
    2.8058    2.1964    1.6750 H   0  0  0  0  0  0  0  0  0  0  0  0
    1.8643    3.6226    2.1036 H   0  0  0  0  0  0  0  0  0  0  0  0
    1.6789    2.3524    4.0350 H   0  0  0  0  0  0  0  0  0  0  0  0
    0.1452    2.0670    3.2209 H   0  0  0  0  0  0  0  0  0  0  0  0
    1.1170   -0.0091    2.3970 H   0  0  0  0  0  0  0  0  0  0  0  0
    1.3962   -1.2576    4.3416 H   0  0  0  0  0  0  0  0  0  0  0  0
    1.3616    0.1839    5.2923 H   0  0  0  0  0  0  0  0  0  0  0  0
   -2.7719    0.5568    2.1980 H   0  0  0  0  0  0  0  0  0  0  0  0
   -4.1039   -1.3114    4.8959 H   0  0  0  0  0  0  0  0  0  0  0  0
   -4.7922   -4.7431    2.7580 H   0  0  0  0  0  0  0  0  0  0  0  0
   -4.0386   -5.0003    0.3718 H   0  0  0  0  0  0  0  0  0  0  0  0
   -3.0899   -4.0020   -1.6739 H   0  0  0  0  0  0  0  0  0  0  0  0
   -2.4223   -1.6122   -1.6951 H   0  0  0  0  0  0  0  0  0  0  0  0
   -2.5986   -0.2675    0.3204 H   0  0  0  0  0  0  0  0  0  0  0  0
   -2.2525    0.7829    5.3808 H   0  0  0  0  0  0  0  0  0  0  0  0
   -0.7136    1.6274    5.3183 H   0  0  0  0  0  0  0  0  0  0  0  0
    0.1437    0.0648    7.1537 H   0  0  0  0  0  0  0  0  0  0  0  0
   -1.2844    0.9805    7.6167 H   0  0  0  0  0  0  0  0  0  0  0  0
   -2.1665   -3.4090    7.7989 H   0  0  0  0  0  0  0  0  0  0  0  0
   -1.8947   -5.3776    6.3254 H   0  0  0  0  0  0  0  0  0  0  0  0
   -0.3814   -2.8466    3.2072 H   0  0  0  0  0  0  0  0  0  0  0  0
  1  2  1  0  0  0  0
  1 33  1  0  0  0  0
  1 34  1  0  0  0  0
  1 35  1  0  0  0  0
  2  3  2  0  0  0  0
  2  4  2  0  0  0  0
  2  5  1  0  0  0  0
  5  6  1  0  0  0  0
  5 36  1  0  0  0  0
  5 37  1  0  0  0  0
  6  7  1  0  0  0  0
  6 38  1  0  0  0  0
  6 39  1  0  0  0  0
  7  8  1  0  0  0  0
  7 40  1  0  0  0  0
  8  9  1  0  0  0  0
  8 41  1  0  0  0  0
  8 42  1  0  0  0  0
  9 10  1  0  0  0  0
  9 23  1  0  0  0  0
  9 32  1  0  0  0  0
 10 11  2  0  0  0  0
 10 12  1  0  0  0  0
 12 13  1  0  0  0  0
 12 43  1  0  0  0  0
 13 14  1  0  0  0  0
 13 22  2  0  0  0  0
 14 15  2  0  0  0  0
 14 44  1  0  0  0  0
 15 16  1  0  0  0  0
 16 17  2  0  0  0  0
 16 45  1  0  0  0  0
 17 18  1  0  0  0  0
 17 22  1  0  0  0  0
 18 19  2  0  0  0  0
 18 46  1  0  0  0  0
 19 20  1  0  0  0  0
 19 47  1  0  0  0  0
 20 21  2  0  0  0  0
 20 48  1  0  0  0  0
 21 22  1  0  0  0  0
 21 49  1  0  0  0  0
 23 24  1  0  0  0  0
 23 50  1  0  0  0  0
 23 51  1  0  0  0  0
 24 25  1  0  0  0  0
 24 52  1  0  0  0  0
 24 53  1  0  0  0  0
 25 26  1  0  0  0  0
 26 27  1  0  0  0  0
 26 32  2  0  0  0  0
 27 28  2  0  0  0  0
 27 54  1  0  0  0  0
 28 29  1  0  0  0  0
 28 55  1  0  0  0  0
 29 30  1  0  0  0  0
 29 31  2  0  0  0  0
 31 32  1  0  0  0  0
 31 56  1  0  0  0  0
M  END
$$$$
