
 OpenBabel06282218493D

 47 50  0  0  0  0  0  0  0  0999 V2000
    1.2148   -0.8446    1.4210 N   0  0  0  0  0  0  0  0  0  0  0  0
    0.1695   -2.1259    1.6908 S   0  0  0  0  0  0  0  0  0  0  0  0
    0.7164   -2.7790    2.8598 O   0  0  0  0  0  0  0  0  0  0  0  0
   -1.1521   -1.5549    1.6943 O   0  0  0  0  0  0  0  0  0  0  0  0
    0.4113   -3.1935    0.2816 C   0  0  0  0  0  0  0  0  0  0  0  0
   -0.2100   -2.7781   -1.0790 C   0  0  0  0  0  0  0  0  0  0  0  0
    0.1356   -3.9616   -2.0650 C   0  0  0  0  0  0  0  0  0  0  0  0
    0.8604   -4.9021   -1.7269 O   0  0  0  0  0  0  0  0  0  0  0  0
   -0.5105   -4.0415   -3.3080 N   0  0  0  0  0  0  0  0  0  0  0  0
    0.1450   -3.3384   -4.3702 C   0  0  0  0  0  0  0  0  0  0  0  0
   -0.2497   -2.0414   -4.6724 C   0  0  0  0  0  0  0  0  0  0  0  0
    0.5945   -1.1187   -5.1788 N   0  0  0  0  0  0  0  0  0  0  0  0
    1.8750   -1.5190   -5.3701 C   0  0  0  0  0  0  0  0  0  0  0  0
    2.3285   -2.8362   -5.2285 C   0  0  0  0  0  0  0  0  0  0  0  0
    3.6690   -3.2155   -5.4214 C   0  0  0  0  0  0  0  0  0  0  0  0
    4.0468   -4.5586   -5.3562 C   0  0  0  0  0  0  0  0  0  0  0  0
    3.0902   -5.5394   -5.1269 C   0  0  0  0  0  0  0  0  0  0  0  0
    1.7791   -5.1662   -4.8472 C   0  0  0  0  0  0  0  0  0  0  0  0
    1.3938   -3.8047   -4.8328 C   0  0  0  0  0  0  0  0  0  0  0  0
    0.4353   -1.4543   -1.5415 C   0  0  0  0  0  0  0  0  0  0  0  0
   -0.5093   -0.2672   -1.4312 C   0  0  0  0  0  0  0  0  0  0  0  0
   -1.7512   -0.5020   -2.0874 O   0  0  0  0  0  0  0  0  0  0  0  0
   -2.3999   -1.6162   -1.6348 C   0  0  0  0  0  0  0  0  0  0  0  0
   -3.7758   -1.6581   -1.8666 C   0  0  0  0  0  0  0  0  0  0  0  0
   -4.5120   -2.7934   -1.5285 C   0  0  0  0  0  0  0  0  0  0  0  0
   -3.8698   -3.8773   -0.9409 C   0  0  0  0  0  0  0  0  0  0  0  0
   -4.7528   -5.3100   -0.5840 Cl  0  0  0  0  0  0  0  0  0  0  0  0
   -2.4976   -3.8373   -0.6979 C   0  0  0  0  0  0  0  0  0  0  0  0
   -1.7359   -2.7109   -1.0722 C   0  0  0  0  0  0  0  0  0  0  0  0
    0.7077    0.0391    1.5165 H   0  0  0  0  0  0  0  0  0  0  0  0
    2.0068   -0.9016    2.0669 H   0  0  0  0  0  0  0  0  0  0  0  0
    1.4995   -3.3185    0.1915 H   0  0  0  0  0  0  0  0  0  0  0  0
    0.0269   -4.1677    0.6075 H   0  0  0  0  0  0  0  0  0  0  0  0
   -0.4290   -5.0337   -3.5171 H   0  0  0  0  0  0  0  0  0  0  0  0
   -1.2315   -1.6689   -4.3943 H   0  0  0  0  0  0  0  0  0  0  0  0
    2.5548   -0.7193   -5.6520 H   0  0  0  0  0  0  0  0  0  0  0  0
    4.4304   -2.4627   -5.6102 H   0  0  0  0  0  0  0  0  0  0  0  0
    5.0859   -4.8421   -5.4989 H   0  0  0  0  0  0  0  0  0  0  0  0
    3.3636   -6.5915   -5.1348 H   0  0  0  0  0  0  0  0  0  0  0  0
    1.0548   -5.9548   -4.6547 H   0  0  0  0  0  0  0  0  0  0  0  0
    0.7820   -1.5230   -2.5654 H   0  0  0  0  0  0  0  0  0  0  0  0
    1.3658   -1.2416   -1.0059 H   0  0  0  0  0  0  0  0  0  0  0  0
   -0.7028    0.0198   -0.3930 H   0  0  0  0  0  0  0  0  0  0  0  0
   -0.0500    0.6057   -1.9091 H   0  0  0  0  0  0  0  0  0  0  0  0
   -4.2706   -0.8117   -2.3361 H   0  0  0  0  0  0  0  0  0  0  0  0
   -5.5760   -2.8316   -1.7422 H   0  0  0  0  0  0  0  0  0  0  0  0
   -2.0153   -4.7242   -0.2916 H   0  0  0  0  0  0  0  0  0  0  0  0
  1  2  1  0  0  0  0
  1 30  1  0  0  0  0
  1 31  1  0  0  0  0
  2  3  2  0  0  0  0
  2  4  2  0  0  0  0
  2  5  1  0  0  0  0
  5  6  1  0  0  0  0
  5 32  1  0  0  0  0
  5 33  1  0  0  0  0
  6  7  1  0  0  0  0
  6 20  1  0  0  0  0
  6 29  1  0  0  0  0
  7  8  2  0  0  0  0
  7  9  1  0  0  0  0
  9 10  1  0  0  0  0
  9 34  1  0  0  0  0
 10 11  1  0  0  0  0
 10 19  2  0  0  0  0
 11 12  2  0  0  0  0
 11 35  1  0  0  0  0
 12 13  1  0  0  0  0
 13 14  2  0  0  0  0
 13 36  1  0  0  0  0
 14 15  1  0  0  0  0
 14 19  1  0  0  0  0
 15 16  2  0  0  0  0
 15 37  1  0  0  0  0
 16 17  1  0  0  0  0
 16 38  1  0  0  0  0
 17 18  2  0  0  0  0
 17 39  1  0  0  0  0
 18 19  1  0  0  0  0
 18 40  1  0  0  0  0
 20 21  1  0  0  0  0
 20 41  1  0  0  0  0
 20 42  1  0  0  0  0
 21 22  1  0  0  0  0
 21 43  1  0  0  0  0
 21 44  1  0  0  0  0
 22 23  1  0  0  0  0
 23 24  1  0  0  0  0
 23 29  2  0  0  0  0
 24 25  2  0  0  0  0
 24 45  1  0  0  0  0
 25 26  1  0  0  0  0
 25 46  1  0  0  0  0
 26 27  1  0  0  0  0
 26 28  2  0  0  0  0
 28 29  1  0  0  0  0
 28 47  1  0  0  0  0
M  END
$$$$
