
 OpenBabel06282218493D

 52 55  0  0  0  0  0  0  0  0999 V2000
    1.4088    0.1593    1.1164 O   0  0  0  0  0  0  0  0  0  0  0  0
    2.3574   -0.0250    0.3406 C   0  0  0  0  0  0  0  0  0  0  0  0
    2.8697    1.1218   -0.2307 N   0  0  0  0  0  0  0  0  0  0  0  0
    4.2237    1.5254   -0.1085 C   0  0  0  0  0  0  0  0  0  0  0  0
    4.7006    2.0142    1.1061 C   0  0  0  0  0  0  0  0  0  0  0  0
    5.9907    2.3443    1.3289 N   0  0  0  0  0  0  0  0  0  0  0  0
    6.8518    2.1454    0.3031 C   0  0  0  0  0  0  0  0  0  0  0  0
    6.4827    1.6959   -0.9673 C   0  0  0  0  0  0  0  0  0  0  0  0
    7.4225    1.4362   -1.9831 C   0  0  0  0  0  0  0  0  0  0  0  0
    7.0056    1.0179   -3.2467 C   0  0  0  0  0  0  0  0  0  0  0  0
    5.6488    0.9328   -3.5290 C   0  0  0  0  0  0  0  0  0  0  0  0
    4.7145    1.1920   -2.5263 C   0  0  0  0  0  0  0  0  0  0  0  0
    5.1115    1.4757   -1.2055 C   0  0  0  0  0  0  0  0  0  0  0  0
    2.8671   -1.4868    0.0376 C   0  0  0  0  0  0  0  0  0  0  0  0
    3.3110   -1.7217   -1.4276 C   0  0  0  0  0  0  0  0  0  0  0  0
    2.1416   -1.2640   -2.7344 S   0  0  0  0  0  0  0  0  0  0  0  0
    1.3421   -0.1433   -2.2793 O   0  0  0  0  0  0  0  0  0  0  0  0
    2.9059   -1.1144   -3.9635 O   0  0  0  0  0  0  0  0  0  0  0  0
    0.9881   -2.5912   -3.0190 C   0  0  0  0  0  0  0  0  0  0  0  0
    1.5821   -3.7511   -3.7776 C   0  0  0  0  0  0  0  0  0  0  0  0
    2.4677   -4.4747   -2.9371 O   0  0  0  0  0  0  0  0  0  0  0  0
    1.6576   -2.4460    0.2656 C   0  0  0  0  0  0  0  0  0  0  0  0
    1.4057   -2.7802    1.7215 C   0  0  0  0  0  0  0  0  0  0  0  0
    2.5217   -3.4456    2.2874 O   0  0  0  0  0  0  0  0  0  0  0  0
    3.6947   -2.7650    2.1257 C   0  0  0  0  0  0  0  0  0  0  0  0
    4.6549   -3.0585    3.1034 C   0  0  0  0  0  0  0  0  0  0  0  0
    5.9085   -2.4635    3.0604 C   0  0  0  0  0  0  0  0  0  0  0  0
    6.2185   -1.6367    1.9923 C   0  0  0  0  0  0  0  0  0  0  0  0
    7.7826   -0.9230    1.9050 Cl  0  0  0  0  0  0  0  0  0  0  0  0
    5.2725   -1.3817    0.9894 C   0  0  0  0  0  0  0  0  0  0  0  0
    3.9628   -1.8901    1.0574 C   0  0  0  0  0  0  0  0  0  0  0  0
    2.2639    1.8430    0.1617 H   0  0  0  0  0  0  0  0  0  0  0  0
    4.0476    2.1373    1.9660 H   0  0  0  0  0  0  0  0  0  0  0  0
    7.8910    2.3599    0.5416 H   0  0  0  0  0  0  0  0  0  0  0  0
    8.4879    1.5359   -1.7867 H   0  0  0  0  0  0  0  0  0  0  0  0
    7.7358    0.7808   -4.0160 H   0  0  0  0  0  0  0  0  0  0  0  0
    5.3052    0.6452   -4.5207 H   0  0  0  0  0  0  0  0  0  0  0  0
    3.6584    1.1499   -2.7808 H   0  0  0  0  0  0  0  0  0  0  0  0
    4.2189   -1.1604   -1.6451 H   0  0  0  0  0  0  0  0  0  0  0  0
    3.5949   -2.7645   -1.5976 H   0  0  0  0  0  0  0  0  0  0  0  0
    0.5521   -2.9009   -2.0722 H   0  0  0  0  0  0  0  0  0  0  0  0
    0.1858   -2.1451   -3.6194 H   0  0  0  0  0  0  0  0  0  0  0  0
    0.7794   -4.4341   -4.0755 H   0  0  0  0  0  0  0  0  0  0  0  0
    2.1123   -3.4341   -4.6801 H   0  0  0  0  0  0  0  0  0  0  0  0
    2.8802   -5.1644   -3.4901 H   0  0  0  0  0  0  0  0  0  0  0  0
    1.8513   -3.3983   -0.2482 H   0  0  0  0  0  0  0  0  0  0  0  0
    0.7390   -2.0194   -0.1502 H   0  0  0  0  0  0  0  0  0  0  0  0
    1.1465   -1.9144    2.3364 H   0  0  0  0  0  0  0  0  0  0  0  0
    0.5606   -3.4755    1.7811 H   0  0  0  0  0  0  0  0  0  0  0  0
    4.4079   -3.7412    3.9133 H   0  0  0  0  0  0  0  0  0  0  0  0
    6.6325   -2.6596    3.8457 H   0  0  0  0  0  0  0  0  0  0  0  0
    5.5871   -0.7679    0.1568 H   0  0  0  0  0  0  0  0  0  0  0  0
  1  2  2  0  0  0  0
  2  3  1  0  0  0  0
  2 14  1  0  0  0  0
  3  4  1  0  0  0  0
  3 32  1  0  0  0  0
  4  5  1  0  0  0  0
  4 13  2  0  0  0  0
  5  6  2  0  0  0  0
  5 33  1  0  0  0  0
  6  7  1  0  0  0  0
  7  8  2  0  0  0  0
  7 34  1  0  0  0  0
  8  9  1  0  0  0  0
  8 13  1  0  0  0  0
  9 10  2  0  0  0  0
  9 35  1  0  0  0  0
 10 11  1  0  0  0  0
 10 36  1  0  0  0  0
 11 12  2  0  0  0  0
 11 37  1  0  0  0  0
 12 13  1  0  0  0  0
 12 38  1  0  0  0  0
 14 15  1  0  0  0  0
 14 22  1  0  0  0  0
 14 31  1  0  0  0  0
 15 16  1  0  0  0  0
 15 39  1  0  0  0  0
 15 40  1  0  0  0  0
 16 17  2  0  0  0  0
 16 18  2  0  0  0  0
 16 19  1  0  0  0  0
 19 20  1  0  0  0  0
 19 41  1  0  0  0  0
 19 42  1  0  0  0  0
 20 21  1  0  0  0  0
 20 43  1  0  0  0  0
 20 44  1  0  0  0  0
 21 45  1  0  0  0  0
 22 23  1  0  0  0  0
 22 46  1  0  0  0  0
 22 47  1  0  0  0  0
 23 24  1  0  0  0  0
 23 48  1  0  0  0  0
 23 49  1  0  0  0  0
 24 25  1  0  0  0  0
 25 26  1  0  0  0  0
 25 31  2  0  0  0  0
 26 27  2  0  0  0  0
 26 50  1  0  0  0  0
 27 28  1  0  0  0  0
 27 51  1  0  0  0  0
 28 29  1  0  0  0  0
 28 30  2  0  0  0  0
 30 31  1  0  0  0  0
 30 52  1  0  0  0  0
M  END
$$$$
