
 OpenBabel06282218493D

 47 50  0  0  0  0  0  0  0  0999 V2000
    1.3023   -0.4908   -0.1440 O   0  0  0  0  0  0  0  0  0  0  0  0
    2.4599   -0.5454    0.2884 C   0  0  0  0  0  0  0  0  0  0  0  0
    3.4503   -0.7115   -0.6507 N   0  0  0  0  0  0  0  0  0  0  0  0
    4.8149   -0.3662   -0.6037 C   0  0  0  0  0  0  0  0  0  0  0  0
    5.2433    0.8440   -0.0663 C   0  0  0  0  0  0  0  0  0  0  0  0
    6.5293    1.2619   -0.0452 N   0  0  0  0  0  0  0  0  0  0  0  0
    7.4338    0.4414   -0.6193 C   0  0  0  0  0  0  0  0  0  0  0  0
    7.1260   -0.7781   -1.2248 C   0  0  0  0  0  0  0  0  0  0  0  0
    8.1218   -1.5839   -1.8061 C   0  0  0  0  0  0  0  0  0  0  0  0
    7.7955   -2.8033   -2.3921 C   0  0  0  0  0  0  0  0  0  0  0  0
    6.4722   -3.2312   -2.4064 C   0  0  0  0  0  0  0  0  0  0  0  0
    5.4749   -2.4391   -1.8358 C   0  0  0  0  0  0  0  0  0  0  0  0
    5.7760   -1.1932   -1.2332 C   0  0  0  0  0  0  0  0  0  0  0  0
    2.7886   -0.6782    1.8395 C   0  0  0  0  0  0  0  0  0  0  0  0
    3.6630    0.3926    2.2074 O   0  0  0  0  0  0  0  0  0  0  0  0
    4.6735    0.2151    3.2007 C   0  0  0  0  0  0  0  0  0  0  0  0
    4.1661    0.3716    4.6341 C   0  0  0  0  0  0  0  0  0  0  0  0
    3.5726   -0.8270    5.1175 O   0  0  0  0  0  0  0  0  0  0  0  0
    3.3410   -2.1015    2.0592 C   0  0  0  0  0  0  0  0  0  0  0  0
    2.2175   -3.1098    1.8856 C   0  0  0  0  0  0  0  0  0  0  0  0
    1.2048   -2.9418    2.8779 O   0  0  0  0  0  0  0  0  0  0  0  0
    0.7938   -1.6540    3.0818 C   0  0  0  0  0  0  0  0  0  0  0  0
   -0.3770   -1.5125    3.8311 C   0  0  0  0  0  0  0  0  0  0  0  0
   -0.8836   -0.2447    4.1158 C   0  0  0  0  0  0  0  0  0  0  0  0
   -0.2161    0.8824    3.6471 C   0  0  0  0  0  0  0  0  0  0  0  0
   -0.8341    2.4493    3.9953 Cl  0  0  0  0  0  0  0  0  0  0  0  0
    0.9589    0.7499    2.9081 C   0  0  0  0  0  0  0  0  0  0  0  0
    1.4924   -0.5250    2.6325 C   0  0  0  0  0  0  0  0  0  0  0  0
    3.0897   -0.9253   -1.5747 H   0  0  0  0  0  0  0  0  0  0  0  0
    4.5393    1.5685    0.3343 H   0  0  0  0  0  0  0  0  0  0  0  0
    8.4565    0.8100   -0.5826 H   0  0  0  0  0  0  0  0  0  0  0  0
    9.1632   -1.2643   -1.7991 H   0  0  0  0  0  0  0  0  0  0  0  0
    8.5736   -3.4223   -2.8333 H   0  0  0  0  0  0  0  0  0  0  0  0
    6.2160   -4.1881   -2.8571 H   0  0  0  0  0  0  0  0  0  0  0  0
    4.4543   -2.8162   -1.8502 H   0  0  0  0  0  0  0  0  0  0  0  0
    5.2295   -0.7139    3.0478 H   0  0  0  0  0  0  0  0  0  0  0  0
    5.3860    1.0294    3.0260 H   0  0  0  0  0  0  0  0  0  0  0  0
    5.0123    0.5881    5.2935 H   0  0  0  0  0  0  0  0  0  0  0  0
    3.4434    1.1890    4.7203 H   0  0  0  0  0  0  0  0  0  0  0  0
    2.6089   -0.7387    5.0096 H   0  0  0  0  0  0  0  0  0  0  0  0
    3.7343   -2.2258    3.0721 H   0  0  0  0  0  0  0  0  0  0  0  0
    4.1683   -2.3293    1.3799 H   0  0  0  0  0  0  0  0  0  0  0  0
    1.7599   -3.0727    0.8904 H   0  0  0  0  0  0  0  0  0  0  0  0
    2.6190   -4.1216    2.0086 H   0  0  0  0  0  0  0  0  0  0  0  0
   -0.8999   -2.3968    4.1878 H   0  0  0  0  0  0  0  0  0  0  0  0
   -1.7977   -0.1459    4.6943 H   0  0  0  0  0  0  0  0  0  0  0  0
    1.4663    1.6410    2.5446 H   0  0  0  0  0  0  0  0  0  0  0  0
  1  2  2  0  0  0  0
  2  3  1  0  0  0  0
  2 14  1  0  0  0  0
  3  4  1  0  0  0  0
  3 29  1  0  0  0  0
  4  5  1  0  0  0  0
  4 13  2  0  0  0  0
  5  6  2  0  0  0  0
  5 30  1  0  0  0  0
  6  7  1  0  0  0  0
  7  8  2  0  0  0  0
  7 31  1  0  0  0  0
  8  9  1  0  0  0  0
  8 13  1  0  0  0  0
  9 10  2  0  0  0  0
  9 32  1  0  0  0  0
 10 11  1  0  0  0  0
 10 33  1  0  0  0  0
 11 12  2  0  0  0  0
 11 34  1  0  0  0  0
 12 13  1  0  0  0  0
 12 35  1  0  0  0  0
 14 15  1  0  0  0  0
 14 19  1  0  0  0  0
 14 28  1  0  0  0  0
 15 16  1  0  0  0  0
 16 17  1  0  0  0  0
 16 36  1  0  0  0  0
 16 37  1  0  0  0  0
 17 18  1  0  0  0  0
 17 38  1  0  0  0  0
 17 39  1  0  0  0  0
 18 40  1  0  0  0  0
 19 20  1  0  0  0  0
 19 41  1  0  0  0  0
 19 42  1  0  0  0  0
 20 21  1  0  0  0  0
 20 43  1  0  0  0  0
 20 44  1  0  0  0  0
 21 22  1  0  0  0  0
 22 23  1  0  0  0  0
 22 28  2  0  0  0  0
 23 24  2  0  0  0  0
 23 45  1  0  0  0  0
 24 25  1  0  0  0  0
 24 46  1  0  0  0  0
 25 26  1  0  0  0  0
 25 27  2  0  0  0  0
 27 28  1  0  0  0  0
 27 47  1  0  0  0  0
M  END
$$$$
