
 OpenBabel06282218493D

 47 50  0  0  0  0  0  0  0  0999 V2000
    1.6712    0.9298   -0.9670 C   0  0  0  0  0  0  0  0  0  0  0  0
    1.8442    1.6041    0.3064 N   0  0  0  0  0  0  0  0  0  0  0  0
    0.5943    1.9282    1.0074 C   0  0  0  0  0  0  0  0  0  0  0  0
   -0.2013    0.8221    1.8100 C   0  0  0  0  0  0  0  0  0  0  0  0
   -1.3292    1.5814    2.5850 C   0  0  0  0  0  0  0  0  0  0  0  0
   -1.4737    2.8067    2.4965 O   0  0  0  0  0  0  0  0  0  0  0  0
   -2.1731    0.9500    3.4766 N   0  0  0  0  0  0  0  0  0  0  0  0
   -2.9308   -0.1940    3.1126 C   0  0  0  0  0  0  0  0  0  0  0  0
   -2.5394   -1.4484    3.5723 C   0  0  0  0  0  0  0  0  0  0  0  0
   -3.2245   -2.5886    3.3415 N   0  0  0  0  0  0  0  0  0  0  0  0
   -4.3607   -2.4684    2.6196 C   0  0  0  0  0  0  0  0  0  0  0  0
   -4.8712   -1.2641    2.1290 C   0  0  0  0  0  0  0  0  0  0  0  0
   -6.0704   -1.2170    1.3954 C   0  0  0  0  0  0  0  0  0  0  0  0
   -6.5661   -0.0048    0.9197 C   0  0  0  0  0  0  0  0  0  0  0  0
   -5.8710    1.1714    1.1714 C   0  0  0  0  0  0  0  0  0  0  0  0
   -4.6778    1.1368    1.8974 C   0  0  0  0  0  0  0  0  0  0  0  0
   -4.1470   -0.0803    2.3920 C   0  0  0  0  0  0  0  0  0  0  0  0
    0.7299    0.1726    2.8610 C   0  0  0  0  0  0  0  0  0  0  0  0
    1.4053   -1.0764    2.3259 C   0  0  0  0  0  0  0  0  0  0  0  0
    0.4523   -2.0449    1.9006 O   0  0  0  0  0  0  0  0  0  0  0  0
   -0.4331   -1.5706    0.9725 C   0  0  0  0  0  0  0  0  0  0  0  0
   -1.0281   -2.5375    0.1592 C   0  0  0  0  0  0  0  0  0  0  0  0
   -1.9634   -2.1659   -0.8048 C   0  0  0  0  0  0  0  0  0  0  0  0
   -2.3042   -0.8252   -0.9467 C   0  0  0  0  0  0  0  0  0  0  0  0
   -3.4689   -0.3598   -2.1239 Cl  0  0  0  0  0  0  0  0  0  0  0  0
   -1.7218    0.1444   -0.1282 C   0  0  0  0  0  0  0  0  0  0  0  0
   -0.7861   -0.2184    0.8607 C   0  0  0  0  0  0  0  0  0  0  0  0
    0.9468    1.4468   -1.6044 H   0  0  0  0  0  0  0  0  0  0  0  0
    1.3699   -0.1126   -0.8470 H   0  0  0  0  0  0  0  0  0  0  0  0
    2.6264    0.9278   -1.5019 H   0  0  0  0  0  0  0  0  0  0  0  0
    2.5059    1.1131    0.8992 H   0  0  0  0  0  0  0  0  0  0  0  0
    0.8826    2.7083    1.7263 H   0  0  0  0  0  0  0  0  0  0  0  0
   -0.0753    2.4449    0.3063 H   0  0  0  0  0  0  0  0  0  0  0  0
   -2.7876    1.6973    3.7948 H   0  0  0  0  0  0  0  0  0  0  0  0
   -1.6398   -1.5779    4.1661 H   0  0  0  0  0  0  0  0  0  0  0  0
   -4.8775   -3.4090    2.4437 H   0  0  0  0  0  0  0  0  0  0  0  0
   -6.6271   -2.1288    1.1888 H   0  0  0  0  0  0  0  0  0  0  0  0
   -7.4922    0.0206    0.3508 H   0  0  0  0  0  0  0  0  0  0  0  0
   -6.2513    2.1191    0.7975 H   0  0  0  0  0  0  0  0  0  0  0  0
   -4.1599    2.0803    2.0565 H   0  0  0  0  0  0  0  0  0  0  0  0
    0.1634   -0.1195    3.7522 H   0  0  0  0  0  0  0  0  0  0  0  0
    1.4816    0.8876    3.2171 H   0  0  0  0  0  0  0  0  0  0  0  0
    2.1033   -0.8734    1.5083 H   0  0  0  0  0  0  0  0  0  0  0  0
    1.9954   -1.5358    3.1267 H   0  0  0  0  0  0  0  0  0  0  0  0
   -0.7641   -3.5848    0.2843 H   0  0  0  0  0  0  0  0  0  0  0  0
   -2.4230   -2.9246   -1.4314 H   0  0  0  0  0  0  0  0  0  0  0  0
   -2.0230    1.1833   -0.2482 H   0  0  0  0  0  0  0  0  0  0  0  0
  1  2  1  0  0  0  0
  1 28  1  0  0  0  0
  1 29  1  0  0  0  0
  1 30  1  0  0  0  0
  2  3  1  0  0  0  0
  2 31  1  0  0  0  0
  3  4  1  0  0  0  0
  3 32  1  0  0  0  0
  3 33  1  0  0  0  0
  4  5  1  0  0  0  0
  4 18  1  0  0  0  0
  4 27  1  0  0  0  0
  5  6  2  0  0  0  0
  5  7  1  0  0  0  0
  7  8  1  0  0  0  0
  7 34  1  0  0  0  0
  8  9  1  0  0  0  0
  8 17  2  0  0  0  0
  9 10  2  0  0  0  0
  9 35  1  0  0  0  0
 10 11  1  0  0  0  0
 11 12  2  0  0  0  0
 11 36  1  0  0  0  0
 12 13  1  0  0  0  0
 12 17  1  0  0  0  0
 13 14  2  0  0  0  0
 13 37  1  0  0  0  0
 14 15  1  0  0  0  0
 14 38  1  0  0  0  0
 15 16  2  0  0  0  0
 15 39  1  0  0  0  0
 16 17  1  0  0  0  0
 16 40  1  0  0  0  0
 18 19  1  0  0  0  0
 18 41  1  0  0  0  0
 18 42  1  0  0  0  0
 19 20  1  0  0  0  0
 19 43  1  0  0  0  0
 19 44  1  0  0  0  0
 20 21  1  0  0  0  0
 21 22  1  0  0  0  0
 21 27  2  0  0  0  0
 22 23  2  0  0  0  0
 22 45  1  0  0  0  0
 23 24  1  0  0  0  0
 23 46  1  0  0  0  0
 24 25  1  0  0  0  0
 24 26  2  0  0  0  0
 26 27  1  0  0  0  0
 26 47  1  0  0  0  0
M  END
$$$$
