
 OpenBabel06282218493D

 53 56  0  0  0  0  0  0  0  0999 V2000
    0.8793   -0.0995    0.1919 C   0  0  0  0  0  0  0  0  0  0  0  0
   -0.0452   -0.9025    0.9326 O   0  0  0  0  0  0  0  0  0  0  0  0
    0.4960   -1.9693    1.5760 C   0  0  0  0  0  0  0  0  0  0  0  0
    1.6876   -2.2822    1.5570 O   0  0  0  0  0  0  0  0  0  0  0  0
   -0.5623   -2.7713    2.3285 C   0  0  0  0  0  0  0  0  0  0  0  0
   -0.2735   -2.7819    3.7714 N   0  0  0  0  0  0  0  0  0  0  0  0
   -0.8442   -3.9420    4.4856 C   0  0  0  0  0  0  0  0  0  0  0  0
    0.1958   -4.9060    5.1653 C   0  0  0  0  0  0  0  0  0  0  0  0
    0.8065   -4.1920    6.3990 C   0  0  0  0  0  0  0  0  0  0  0  0
    0.1903   -3.3203    7.0179 O   0  0  0  0  0  0  0  0  0  0  0  0
    1.9509   -4.7698    6.9698 N   0  0  0  0  0  0  0  0  0  0  0  0
    3.0606   -3.8580    6.9317 C   0  0  0  0  0  0  0  0  0  0  0  0
    3.9222   -3.9278    5.8424 C   0  0  0  0  0  0  0  0  0  0  0  0
    4.6474   -2.8860    5.4000 N   0  0  0  0  0  0  0  0  0  0  0  0
    4.4661   -1.7186    6.0589 C   0  0  0  0  0  0  0  0  0  0  0  0
    3.6983   -1.5619    7.2194 C   0  0  0  0  0  0  0  0  0  0  0  0
    3.5056   -0.3133    7.8353 C   0  0  0  0  0  0  0  0  0  0  0  0
    2.7506   -0.2007    9.0041 C   0  0  0  0  0  0  0  0  0  0  0  0
    2.2111   -1.3358    9.5945 C   0  0  0  0  0  0  0  0  0  0  0  0
    2.3568   -2.5714    8.9686 C   0  0  0  0  0  0  0  0  0  0  0  0
    3.0530   -2.6961    7.7392 C   0  0  0  0  0  0  0  0  0  0  0  0
    1.2726   -5.3500    4.1513 C   0  0  0  0  0  0  0  0  0  0  0  0
    0.7139   -6.4464    3.2660 C   0  0  0  0  0  0  0  0  0  0  0  0
    0.5077   -7.6301    4.0397 O   0  0  0  0  0  0  0  0  0  0  0  0
   -0.1797   -7.4293    5.2059 C   0  0  0  0  0  0  0  0  0  0  0  0
   -0.5038   -8.5828    5.9214 C   0  0  0  0  0  0  0  0  0  0  0  0
   -1.1779   -8.4925    7.1398 C   0  0  0  0  0  0  0  0  0  0  0  0
   -1.5836   -7.2490    7.6101 C   0  0  0  0  0  0  0  0  0  0  0  0
   -2.3955   -7.1241    9.1213 Cl  0  0  0  0  0  0  0  0  0  0  0  0
   -1.2714   -6.0933    6.8979 C   0  0  0  0  0  0  0  0  0  0  0  0
   -0.4902   -6.1664    5.7247 C   0  0  0  0  0  0  0  0  0  0  0  0
    0.4845    0.9197    0.1459 H   0  0  0  0  0  0  0  0  0  0  0  0
    0.9552   -0.4894   -0.8271 H   0  0  0  0  0  0  0  0  0  0  0  0
    1.8700   -0.0562    0.6562 H   0  0  0  0  0  0  0  0  0  0  0  0
   -1.5530   -2.3406    2.1514 H   0  0  0  0  0  0  0  0  0  0  0  0
   -0.5440   -3.7770    1.8937 H   0  0  0  0  0  0  0  0  0  0  0  0
    0.7290   -2.6763    3.9389 H   0  0  0  0  0  0  0  0  0  0  0  0
   -1.5179   -3.5297    5.2478 H   0  0  0  0  0  0  0  0  0  0  0  0
   -1.5025   -4.5161    3.8214 H   0  0  0  0  0  0  0  0  0  0  0  0
    1.6880   -4.8530    7.9488 H   0  0  0  0  0  0  0  0  0  0  0  0
    4.0066   -4.8296    5.2445 H   0  0  0  0  0  0  0  0  0  0  0  0
    4.9707   -0.8713    5.6029 H   0  0  0  0  0  0  0  0  0  0  0  0
    3.9166    0.5870    7.3854 H   0  0  0  0  0  0  0  0  0  0  0  0
    2.5810    0.7741    9.4524 H   0  0  0  0  0  0  0  0  0  0  0  0
    1.6427   -1.2603   10.5179 H   0  0  0  0  0  0  0  0  0  0  0  0
    1.8927   -3.4337    9.4413 H   0  0  0  0  0  0  0  0  0  0  0  0
    2.1350   -5.7798    4.6691 H   0  0  0  0  0  0  0  0  0  0  0  0
    1.6553   -4.5205    3.5505 H   0  0  0  0  0  0  0  0  0  0  0  0
   -0.2179   -6.1633    2.7631 H   0  0  0  0  0  0  0  0  0  0  0  0
    1.4398   -6.6927    2.4840 H   0  0  0  0  0  0  0  0  0  0  0  0
   -0.1930   -9.5540    5.5451 H   0  0  0  0  0  0  0  0  0  0  0  0
   -1.3749   -9.3916    7.7163 H   0  0  0  0  0  0  0  0  0  0  0  0
   -1.5622   -5.1281    7.3121 H   0  0  0  0  0  0  0  0  0  0  0  0
  1  2  1  0  0  0  0
  1 32  1  0  0  0  0
  1 33  1  0  0  0  0
  1 34  1  0  0  0  0
  2  3  1  0  0  0  0
  3  4  2  0  0  0  0
  3  5  1  0  0  0  0
  5  6  1  0  0  0  0
  5 35  1  0  0  0  0
  5 36  1  0  0  0  0
  6  7  1  0  0  0  0
  6 37  1  0  0  0  0
  7  8  1  0  0  0  0
  7 38  1  0  0  0  0
  7 39  1  0  0  0  0
  8  9  1  0  0  0  0
  8 22  1  0  0  0  0
  8 31  1  0  0  0  0
  9 10  2  0  0  0  0
  9 11  1  0  0  0  0
 11 12  1  0  0  0  0
 11 40  1  0  0  0  0
 12 13  1  0  0  0  0
 12 21  2  0  0  0  0
 13 14  2  0  0  0  0
 13 41  1  0  0  0  0
 14 15  1  0  0  0  0
 15 16  2  0  0  0  0
 15 42  1  0  0  0  0
 16 17  1  0  0  0  0
 16 21  1  0  0  0  0
 17 18  2  0  0  0  0
 17 43  1  0  0  0  0
 18 19  1  0  0  0  0
 18 44  1  0  0  0  0
 19 20  2  0  0  0  0
 19 45  1  0  0  0  0
 20 21  1  0  0  0  0
 20 46  1  0  0  0  0
 22 23  1  0  0  0  0
 22 47  1  0  0  0  0
 22 48  1  0  0  0  0
 23 24  1  0  0  0  0
 23 49  1  0  0  0  0
 23 50  1  0  0  0  0
 24 25  1  0  0  0  0
 25 26  1  0  0  0  0
 25 31  2  0  0  0  0
 26 27  2  0  0  0  0
 26 51  1  0  0  0  0
 27 28  1  0  0  0  0
 27 52  1  0  0  0  0
 28 29  1  0  0  0  0
 28 30  2  0  0  0  0
 30 31  1  0  0  0  0
 30 53  1  0  0  0  0
M  END
$$$$
