
 OpenBabel06282218493D

 54 58  0  0  0  0  0  0  0  0999 V2000
    1.5638   -0.1479   -0.0048 C   0  0  0  0  0  0  0  0  0  0  0  0
    0.2939   -0.1694   -0.6868 N   0  0  0  0  0  0  0  0  0  0  0  0
   -0.0881   -1.0759   -1.6370 C   0  0  0  0  0  0  0  0  0  0  0  0
   -1.3258   -0.6477   -2.0524 C   0  0  0  0  0  0  0  0  0  0  0  0
   -1.7018    0.4854   -1.3787 N   0  0  0  0  0  0  0  0  0  0  0  0
   -0.7224    0.7462   -0.5437 C   0  0  0  0  0  0  0  0  0  0  0  0
   -0.6399    1.7446    0.3652 N   0  0  0  0  0  0  0  0  0  0  0  0
   -1.8196    2.6061    0.5272 C   0  0  0  0  0  0  0  0  0  0  0  0
   -1.5456    3.8544    1.4376 C   0  0  0  0  0  0  0  0  0  0  0  0
   -0.9876    3.3677    2.8009 C   0  0  0  0  0  0  0  0  0  0  0  0
   -0.8859    2.1663    3.0798 O   0  0  0  0  0  0  0  0  0  0  0  0
   -0.6996    4.2510    3.8242 N   0  0  0  0  0  0  0  0  0  0  0  0
    0.3377    5.2107    3.6607 C   0  0  0  0  0  0  0  0  0  0  0  0
    0.0034    6.5479    3.4682 C   0  0  0  0  0  0  0  0  0  0  0  0
    0.9083    7.5405    3.3380 N   0  0  0  0  0  0  0  0  0  0  0  0
    2.2097    7.1787    3.4017 C   0  0  0  0  0  0  0  0  0  0  0  0
    2.6679    5.8752    3.6119 C   0  0  0  0  0  0  0  0  0  0  0  0
    4.0415    5.5752    3.6688 C   0  0  0  0  0  0  0  0  0  0  0  0
    4.4781    4.2686    3.8794 C   0  0  0  0  0  0  0  0  0  0  0  0
    3.5495    3.2485    4.0386 C   0  0  0  0  0  0  0  0  0  0  0  0
    2.1834    3.5340    3.9825 C   0  0  0  0  0  0  0  0  0  0  0  0
    1.7075    4.8518    3.7637 C   0  0  0  0  0  0  0  0  0  0  0  0
   -2.9062    4.5275    1.7516 C   0  0  0  0  0  0  0  0  0  0  0  0
   -3.3778    5.3581    0.5753 C   0  0  0  0  0  0  0  0  0  0  0  0
   -2.4759    6.4329    0.3294 O   0  0  0  0  0  0  0  0  0  0  0  0
   -1.1681    6.0510    0.1983 C   0  0  0  0  0  0  0  0  0  0  0  0
   -0.3418    6.9849   -0.4329 C   0  0  0  0  0  0  0  0  0  0  0  0
    1.0110    6.7127   -0.6236 C   0  0  0  0  0  0  0  0  0  0  0  0
    1.5311    5.5009   -0.1846 C   0  0  0  0  0  0  0  0  0  0  0  0
    3.2023    5.1559   -0.4072 Cl  0  0  0  0  0  0  0  0  0  0  0  0
    0.7120    4.5684    0.4553 C   0  0  0  0  0  0  0  0  0  0  0  0
   -0.6497    4.8412    0.6874 C   0  0  0  0  0  0  0  0  0  0  0  0
    1.3884   -0.2685    1.0672 H   0  0  0  0  0  0  0  0  0  0  0  0
    2.1901   -0.9654   -0.3717 H   0  0  0  0  0  0  0  0  0  0  0  0
    2.0540    0.8085   -0.2064 H   0  0  0  0  0  0  0  0  0  0  0  0
    0.5288   -1.9103   -1.9376 H   0  0  0  0  0  0  0  0  0  0  0  0
   -1.9644   -1.0944   -2.8022 H   0  0  0  0  0  0  0  0  0  0  0  0
   -0.2790    1.4594    1.2783 H   0  0  0  0  0  0  0  0  0  0  0  0
   -2.1615    2.9401   -0.4613 H   0  0  0  0  0  0  0  0  0  0  0  0
   -2.6240    2.0001    0.9659 H   0  0  0  0  0  0  0  0  0  0  0  0
   -0.4625    3.6354    4.6004 H   0  0  0  0  0  0  0  0  0  0  0  0
   -1.0327    6.8687    3.4106 H   0  0  0  0  0  0  0  0  0  0  0  0
    2.9070    8.0039    3.2769 H   0  0  0  0  0  0  0  0  0  0  0  0
    4.7829    6.3619    3.5437 H   0  0  0  0  0  0  0  0  0  0  0  0
    5.5420    4.0483    3.9172 H   0  0  0  0  0  0  0  0  0  0  0  0
    3.8847    2.2272    4.2029 H   0  0  0  0  0  0  0  0  0  0  0  0
    1.4951    2.7006    4.1020 H   0  0  0  0  0  0  0  0  0  0  0  0
   -2.8147    5.1953    2.6177 H   0  0  0  0  0  0  0  0  0  0  0  0
   -3.6615    3.7786    2.0191 H   0  0  0  0  0  0  0  0  0  0  0  0
   -3.5107    4.7696   -0.3395 H   0  0  0  0  0  0  0  0  0  0  0  0
   -4.3512    5.8016    0.8107 H   0  0  0  0  0  0  0  0  0  0  0  0
   -0.7577    7.9286   -0.7769 H   0  0  0  0  0  0  0  0  0  0  0  0
    1.6457    7.4467   -1.1110 H   0  0  0  0  0  0  0  0  0  0  0  0
    1.1518    3.6325    0.7909 H   0  0  0  0  0  0  0  0  0  0  0  0
  1  2  1  0  0  0  0
  1 33  1  0  0  0  0
  1 34  1  0  0  0  0
  1 35  1  0  0  0  0
  2  3  1  0  0  0  0
  2  6  1  0  0  0  0
  3  4  2  0  0  0  0
  3 36  1  0  0  0  0
  4  5  1  0  0  0  0
  4 37  1  0  0  0  0
  5  6  2  0  0  0  0
  6  7  1  0  0  0  0
  7  8  1  0  0  0  0
  7 38  1  0  0  0  0
  8  9  1  0  0  0  0
  8 39  1  0  0  0  0
  8 40  1  0  0  0  0
  9 10  1  0  0  0  0
  9 23  1  0  0  0  0
  9 32  1  0  0  0  0
 10 11  2  0  0  0  0
 10 12  1  0  0  0  0
 12 13  1  0  0  0  0
 12 41  1  0  0  0  0
 13 14  1  0  0  0  0
 13 22  2  0  0  0  0
 14 15  2  0  0  0  0
 14 42  1  0  0  0  0
 15 16  1  0  0  0  0
 16 17  2  0  0  0  0
 16 43  1  0  0  0  0
 17 18  1  0  0  0  0
 17 22  1  0  0  0  0
 18 19  2  0  0  0  0
 18 44  1  0  0  0  0
 19 20  1  0  0  0  0
 19 45  1  0  0  0  0
 20 21  2  0  0  0  0
 20 46  1  0  0  0  0
 21 22  1  0  0  0  0
 21 47  1  0  0  0  0
 23 24  1  0  0  0  0
 23 48  1  0  0  0  0
 23 49  1  0  0  0  0
 24 25  1  0  0  0  0
 24 50  1  0  0  0  0
 24 51  1  0  0  0  0
 25 26  1  0  0  0  0
 26 27  1  0  0  0  0
 26 32  2  0  0  0  0
 27 28  2  0  0  0  0
 27 52  1  0  0  0  0
 28 29  1  0  0  0  0
 28 53  1  0  0  0  0
 29 30  1  0  0  0  0
 29 31  2  0  0  0  0
 31 32  1  0  0  0  0
 31 54  1  0  0  0  0
M  END
$$$$
