
 OpenBabel06282218493D

 50 53  0  0  0  0  0  0  0  0999 V2000
    1.1997   -0.1702    0.5925 C   0  0  0  0  0  0  0  0  0  0  0  0
    0.7197    0.3657   -0.6382 O   0  0  0  0  0  0  0  0  0  0  0  0
    1.3850    1.4598   -1.0728 C   0  0  0  0  0  0  0  0  0  0  0  0
    2.3277    1.9953   -0.5046 O   0  0  0  0  0  0  0  0  0  0  0  0
    0.9079    1.9356   -2.2565 N   0  0  0  0  0  0  0  0  0  0  0  0
   -0.2435    1.4262   -2.9904 C   0  0  0  0  0  0  0  0  0  0  0  0
   -1.5494    2.2829   -2.8374 C   0  0  0  0  0  0  0  0  0  0  0  0
   -2.6372    1.5547   -3.7084 C   0  0  0  0  0  0  0  0  0  0  0  0
   -2.4539    0.4186   -4.1619 O   0  0  0  0  0  0  0  0  0  0  0  0
   -3.9162    2.0779   -3.8479 N   0  0  0  0  0  0  0  0  0  0  0  0
   -4.0727    3.2724   -4.6009 C   0  0  0  0  0  0  0  0  0  0  0  0
   -4.4924    4.4269   -3.9452 C   0  0  0  0  0  0  0  0  0  0  0  0
   -4.4229    5.6576   -4.4943 N   0  0  0  0  0  0  0  0  0  0  0  0
   -3.8939    5.7349   -5.7389 C   0  0  0  0  0  0  0  0  0  0  0  0
   -3.4859    4.6376   -6.5062 C   0  0  0  0  0  0  0  0  0  0  0  0
   -2.9062    4.7829   -7.7803 C   0  0  0  0  0  0  0  0  0  0  0  0
   -2.5308    3.6649   -8.5262 C   0  0  0  0  0  0  0  0  0  0  0  0
   -2.7521    2.3904   -8.0218 C   0  0  0  0  0  0  0  0  0  0  0  0
   -3.2971    2.2359   -6.7482 C   0  0  0  0  0  0  0  0  0  0  0  0
   -3.6383    3.3536   -5.9479 C   0  0  0  0  0  0  0  0  0  0  0  0
   -1.1905    3.7185   -3.3004 C   0  0  0  0  0  0  0  0  0  0  0  0
   -0.9175    4.6546   -2.1345 C   0  0  0  0  0  0  0  0  0  0  0  0
   -2.0276    4.6978   -1.2418 O   0  0  0  0  0  0  0  0  0  0  0  0
   -2.3103    3.4704   -0.7122 C   0  0  0  0  0  0  0  0  0  0  0  0
   -2.9025    3.4704    0.5522 C   0  0  0  0  0  0  0  0  0  0  0  0
   -3.2277    2.2659    1.1742 C   0  0  0  0  0  0  0  0  0  0  0  0
   -2.9669    1.0662    0.5214 C   0  0  0  0  0  0  0  0  0  0  0  0
   -3.3631   -0.4266    1.2785 Cl  0  0  0  0  0  0  0  0  0  0  0  0
   -2.4009    1.0651   -0.7534 C   0  0  0  0  0  0  0  0  0  0  0  0
   -2.0695    2.2744   -1.3962 C   0  0  0  0  0  0  0  0  0  0  0  0
    0.7397   -1.1523    0.7318 H   0  0  0  0  0  0  0  0  0  0  0  0
    0.8999    0.4778    1.4208 H   0  0  0  0  0  0  0  0  0  0  0  0
    2.2863   -0.3011    0.5726 H   0  0  0  0  0  0  0  0  0  0  0  0
    1.4332    2.7202   -2.6183 H   0  0  0  0  0  0  0  0  0  0  0  0
    0.0615    1.4152   -4.0456 H   0  0  0  0  0  0  0  0  0  0  0  0
   -0.4098    0.3798   -2.7140 H   0  0  0  0  0  0  0  0  0  0  0  0
   -4.4249    1.3271   -4.3122 H   0  0  0  0  0  0  0  0  0  0  0  0
   -4.8327    4.3993   -2.9132 H   0  0  0  0  0  0  0  0  0  0  0  0
   -3.7932    6.7499   -6.1163 H   0  0  0  0  0  0  0  0  0  0  0  0
   -2.7303    5.7732   -8.1950 H   0  0  0  0  0  0  0  0  0  0  0  0
   -2.0739    3.7879   -9.5048 H   0  0  0  0  0  0  0  0  0  0  0  0
   -2.4910    1.5125   -8.6080 H   0  0  0  0  0  0  0  0  0  0  0  0
   -3.4525    1.2203   -6.3885 H   0  0  0  0  0  0  0  0  0  0  0  0
   -1.9811    4.1764   -3.8761 H   0  0  0  0  0  0  0  0  0  0  0  0
   -0.3338    3.7203   -3.9859 H   0  0  0  0  0  0  0  0  0  0  0  0
   -0.0068    4.3929   -1.5840 H   0  0  0  0  0  0  0  0  0  0  0  0
   -0.7701    5.6719   -2.5149 H   0  0  0  0  0  0  0  0  0  0  0  0
   -3.1015    4.4129    1.0560 H   0  0  0  0  0  0  0  0  0  0  0  0
   -3.6819    2.2717    2.1608 H   0  0  0  0  0  0  0  0  0  0  0  0
   -2.2314    0.1116   -1.2510 H   0  0  0  0  0  0  0  0  0  0  0  0
  1  2  1  0  0  0  0
  1 31  1  0  0  0  0
  1 32  1  0  0  0  0
  1 33  1  0  0  0  0
  2  3  1  0  0  0  0
  3  4  2  0  0  0  0
  3  5  1  0  0  0  0
  5  6  1  0  0  0  0
  5 34  1  0  0  0  0
  6  7  1  0  0  0  0
  6 35  1  0  0  0  0
  6 36  1  0  0  0  0
  7  8  1  0  0  0  0
  7 21  1  0  0  0  0
  7 30  1  0  0  0  0
  8  9  2  0  0  0  0
  8 10  1  0  0  0  0
 10 11  1  0  0  0  0
 10 37  1  0  0  0  0
 11 12  1  0  0  0  0
 11 20  2  0  0  0  0
 12 13  2  0  0  0  0
 12 38  1  0  0  0  0
 13 14  1  0  0  0  0
 14 15  2  0  0  0  0
 14 39  1  0  0  0  0
 15 16  1  0  0  0  0
 15 20  1  0  0  0  0
 16 17  2  0  0  0  0
 16 40  1  0  0  0  0
 17 18  1  0  0  0  0
 17 41  1  0  0  0  0
 18 19  2  0  0  0  0
 18 42  1  0  0  0  0
 19 20  1  0  0  0  0
 19 43  1  0  0  0  0
 21 22  1  0  0  0  0
 21 44  1  0  0  0  0
 21 45  1  0  0  0  0
 22 23  1  0  0  0  0
 22 46  1  0  0  0  0
 22 47  1  0  0  0  0
 23 24  1  0  0  0  0
 24 25  1  0  0  0  0
 24 30  2  0  0  0  0
 25 26  2  0  0  0  0
 25 48  1  0  0  0  0
 26 27  1  0  0  0  0
 26 49  1  0  0  0  0
 27 28  1  0  0  0  0
 27 29  2  0  0  0  0
 29 30  1  0  0  0  0
 29 50  1  0  0  0  0
M  END
$$$$
