
 OpenBabel06282218493D

 42 45  0  0  0  0  0  0  0  0999 V2000
   -1.0854    0.1699    0.2108 C   0  0  0  0  0  0  0  0  0  0  0  0
   -1.2537   -1.2360    0.3178 O   0  0  0  0  0  0  0  0  0  0  0  0
   -0.2184   -1.9739    1.0006 C   0  0  0  0  0  0  0  0  0  0  0  0
   -0.2541   -1.7101    2.5575 C   0  0  0  0  0  0  0  0  0  0  0  0
   -0.9185   -0.8029    3.0692 O   0  0  0  0  0  0  0  0  0  0  0  0
    0.3403   -2.6070    3.4321 N   0  0  0  0  0  0  0  0  0  0  0  0
    1.7409   -2.5134    3.6857 C   0  0  0  0  0  0  0  0  0  0  0  0
    2.6093   -3.3947    3.0489 C   0  0  0  0  0  0  0  0  0  0  0  0
    3.9421   -3.4303    3.2643 N   0  0  0  0  0  0  0  0  0  0  0  0
    4.4305   -2.5813    4.1964 C   0  0  0  0  0  0  0  0  0  0  0  0
    3.6562   -1.6860    4.9361 C   0  0  0  0  0  0  0  0  0  0  0  0
    4.2173   -0.8541    5.9169 C   0  0  0  0  0  0  0  0  0  0  0  0
    3.3860   -0.0003    6.6180 C   0  0  0  0  0  0  0  0  0  0  0  0
    2.0615    0.0879    6.4016 N   0  0  0  0  0  0  0  0  0  0  0  0
    1.5414   -0.7185    5.4441 C   0  0  0  0  0  0  0  0  0  0  0  0
    2.2724   -1.6437    4.6762 C   0  0  0  0  0  0  0  0  0  0  0  0
    1.1592   -1.6765    0.3878 C   0  0  0  0  0  0  0  0  0  0  0  0
    1.2645   -2.3544   -0.9665 C   0  0  0  0  0  0  0  0  0  0  0  0
    1.2364   -3.7757   -0.8155 O   0  0  0  0  0  0  0  0  0  0  0  0
    0.1280   -4.2240   -0.1502 C   0  0  0  0  0  0  0  0  0  0  0  0
   -0.2228   -5.5571   -0.3763 C   0  0  0  0  0  0  0  0  0  0  0  0
   -1.3574   -6.0976    0.2294 C   0  0  0  0  0  0  0  0  0  0  0  0
   -2.1389   -5.2992    1.0583 C   0  0  0  0  0  0  0  0  0  0  0  0
   -3.5503   -5.9519    1.7941 Cl  0  0  0  0  0  0  0  0  0  0  0  0
   -1.7823   -3.9730    1.3003 C   0  0  0  0  0  0  0  0  0  0  0  0
   -0.6198   -3.4237    0.7211 C   0  0  0  0  0  0  0  0  0  0  0  0
   -2.0681    0.6162    0.0350 H   0  0  0  0  0  0  0  0  0  0  0  0
   -0.4576    0.4017   -0.6544 H   0  0  0  0  0  0  0  0  0  0  0  0
   -0.6560    0.6189    1.1091 H   0  0  0  0  0  0  0  0  0  0  0  0
   -0.1443   -2.4029    4.3047 H   0  0  0  0  0  0  0  0  0  0  0  0
    2.2481   -4.1237    2.3274 H   0  0  0  0  0  0  0  0  0  0  0  0
    5.5060   -2.6518    4.3451 H   0  0  0  0  0  0  0  0  0  0  0  0
    5.2791   -0.8729    6.1407 H   0  0  0  0  0  0  0  0  0  0  0  0
    3.7742    0.6542    7.3936 H   0  0  0  0  0  0  0  0  0  0  0  0
    0.4710   -0.5815    5.3109 H   0  0  0  0  0  0  0  0  0  0  0  0
    1.9670   -2.0556    1.0111 H   0  0  0  0  0  0  0  0  0  0  0  0
    1.3397   -0.6028    0.2821 H   0  0  0  0  0  0  0  0  0  0  0  0
    0.4771   -2.0367   -1.6618 H   0  0  0  0  0  0  0  0  0  0  0  0
    2.2236   -2.1010   -1.4307 H   0  0  0  0  0  0  0  0  0  0  0  0
    0.3784   -6.1699   -1.0434 H   0  0  0  0  0  0  0  0  0  0  0  0
   -1.6319   -7.1314    0.0391 H   0  0  0  0  0  0  0  0  0  0  0  0
   -2.4168   -3.3577    1.9362 H   0  0  0  0  0  0  0  0  0  0  0  0
  1  2  1  0  0  0  0
  1 27  1  0  0  0  0
  1 28  1  0  0  0  0
  1 29  1  0  0  0  0
  2  3  1  0  0  0  0
  3  4  1  0  0  0  0
  3 17  1  0  0  0  0
  3 26  1  0  0  0  0
  4  5  2  0  0  0  0
  4  6  1  0  0  0  0
  6  7  1  0  0  0  0
  6 30  1  0  0  0  0
  7  8  1  0  0  0  0
  7 16  2  0  0  0  0
  8  9  2  0  0  0  0
  8 31  1  0  0  0  0
  9 10  1  0  0  0  0
 10 11  2  0  0  0  0
 10 32  1  0  0  0  0
 11 12  1  0  0  0  0
 11 16  1  0  0  0  0
 12 13  2  0  0  0  0
 12 33  1  0  0  0  0
 13 14  1  0  0  0  0
 13 34  1  0  0  0  0
 14 15  2  0  0  0  0
 15 16  1  0  0  0  0
 15 35  1  0  0  0  0
 17 18  1  0  0  0  0
 17 36  1  0  0  0  0
 17 37  1  0  0  0  0
 18 19  1  0  0  0  0
 18 38  1  0  0  0  0
 18 39  1  0  0  0  0
 19 20  1  0  0  0  0
 20 21  1  0  0  0  0
 20 26  2  0  0  0  0
 21 22  2  0  0  0  0
 21 40  1  0  0  0  0
 22 23  1  0  0  0  0
 22 41  1  0  0  0  0
 23 24  1  0  0  0  0
 23 25  2  0  0  0  0
 25 26  1  0  0  0  0
 25 42  1  0  0  0  0
M  END
$$$$
