
 OpenBabel06282218493D

 43 46  0  0  0  0  0  0  0  0999 V2000
    0.4563   -0.7695    0.7820 C   0  0  0  0  0  0  0  0  0  0  0  0
   -0.0653   -0.8739   -0.5288 O   0  0  0  0  0  0  0  0  0  0  0  0
    0.8207   -0.9314   -1.7293 C   0  0  0  0  0  0  0  0  0  0  0  0
   -0.3813   -0.3228   -2.9329 C   0  0  0  0  0  0  0  0  0  0  0  0
   -1.3754    0.1241   -2.2954 O   0  0  0  0  0  0  0  0  0  0  0  0
   -0.1642   -0.3759   -4.8840 N   0  0  0  0  0  0  0  0  0  0  0  0
    0.7980   -1.2731   -5.5469 C   0  0  0  0  0  0  0  0  0  0  0  0
    1.9188   -0.7359   -6.2388 C   0  0  0  0  0  0  0  0  0  0  0  0
    2.8256    0.1916   -5.7825 N   0  0  0  0  0  0  0  0  0  0  0  0
    2.5358    0.7885   -4.6229 C   0  0  0  0  0  0  0  0  0  0  0  0
    1.3480    0.4182   -4.0658 C   0  0  0  0  0  0  0  0  0  0  0  0
   -0.0056    1.5525   -4.0709 C   0  0  0  0  0  0  0  0  0  0  0  0
   -1.6898    1.0204   -4.2877 C   0  0  0  0  0  0  0  0  0  0  0  0
   -2.1515   -0.6997   -4.3366 C   0  0  0  0  0  0  0  0  0  0  0  0
   -3.4166   -1.0194   -4.6422 F   0  0  0  0  0  0  0  0  0  0  0  0
   -0.9478   -1.9739   -4.1872 C   0  0  0  0  0  0  0  0  0  0  0  0
    0.7520   -1.3050   -4.2995 C   0  0  0  0  0  0  0  0  0  0  0  0
    1.2672   -2.4124   -1.7282 C   0  0  0  0  0  0  0  0  0  0  0  0
    2.6812   -2.5827   -1.1860 C   0  0  0  0  0  0  0  0  0  0  0  0
    3.6009   -1.7076   -1.8336 O   0  0  0  0  0  0  0  0  0  0  0  0
    3.3052   -0.4014   -1.5560 C   0  0  0  0  0  0  0  0  0  0  0  0
    4.3893    0.4688   -1.4192 C   0  0  0  0  0  0  0  0  0  0  0  0
    4.1687    1.8166   -1.1429 C   0  0  0  0  0  0  0  0  0  0  0  0
    2.8629    2.2847   -1.0124 C   0  0  0  0  0  0  0  0  0  0  0  0
    2.5915    3.9515   -0.6826 Cl  0  0  0  0  0  0  0  0  0  0  0  0
    1.7753    1.4185   -1.1701 C   0  0  0  0  0  0  0  0  0  0  0  0
    1.9814    0.0543   -1.4663 C   0  0  0  0  0  0  0  0  0  0  0  0
   -0.3591   -1.0034    1.4733 H   0  0  0  0  0  0  0  0  0  0  0  0
    0.7764    0.2503    1.0115 H   0  0  0  0  0  0  0  0  0  0  0  0
    1.2611   -1.4757    0.9731 H   0  0  0  0  0  0  0  0  0  0  0  0
   -0.6829    0.1184   -5.6188 H   0  0  0  0  0  0  0  0  0  0  0  0
    2.1367   -1.1031   -7.2420 H   0  0  0  0  0  0  0  0  0  0  0  0
    3.0627    1.7038   -4.3994 H   0  0  0  0  0  0  0  0  0  0  0  0
    0.2079    2.6188   -4.0512 H   0  0  0  0  0  0  0  0  0  0  0  0
   -2.4801    1.7669   -4.3137 H   0  0  0  0  0  0  0  0  0  0  0  0
   -1.1992   -2.9482   -4.6091 H   0  0  0  0  0  0  0  0  0  0  0  0
    1.2585   -2.8718   -2.7142 H   0  0  0  0  0  0  0  0  0  0  0  0
    0.5865   -3.0247   -1.1221 H   0  0  0  0  0  0  0  0  0  0  0  0
    2.7464   -2.4390   -0.1015 H   0  0  0  0  0  0  0  0  0  0  0  0
    3.0197   -3.6080   -1.3684 H   0  0  0  0  0  0  0  0  0  0  0  0
    5.4045    0.0926   -1.5213 H   0  0  0  0  0  0  0  0  0  0  0  0
    5.0151    2.4901   -1.0309 H   0  0  0  0  0  0  0  0  0  0  0  0
    0.7612    1.8056   -1.0765 H   0  0  0  0  0  0  0  0  0  0  0  0
  1  2  1  0  0  0  0
  1 28  1  0  0  0  0
  1 29  1  0  0  0  0
  1 30  1  0  0  0  0
  2  3  1  0  0  0  0
  3  4  1  0  0  0  0
  3 18  1  0  0  0  0
  3 27  1  0  0  0  0
  4  5  2  0  0  0  0
  4  6  1  0  0  0  0
  6  7  1  0  0  0  0
  6 31  1  0  0  0  0
  7  8  1  0  0  0  0
  7 17  2  0  0  0  0
  8  9  2  0  0  0  0
  8 32  1  0  0  0  0
  9 10  1  0  0  0  0
 10 11  2  0  0  0  0
 10 33  1  0  0  0  0
 11 12  1  0  0  0  0
 11 17  1  0  0  0  0
 12 13  2  0  0  0  0
 12 34  1  0  0  0  0
 13 14  1  0  0  0  0
 13 35  1  0  0  0  0
 14 15  1  0  0  0  0
 14 16  2  0  0  0  0
 16 17  1  0  0  0  0
 16 36  1  0  0  0  0
 18 19  1  0  0  0  0
 18 37  1  0  0  0  0
 18 38  1  0  0  0  0
 19 20  1  0  0  0  0
 19 39  1  0  0  0  0
 19 40  1  0  0  0  0
 20 21  1  0  0  0  0
 21 22  1  0  0  0  0
 21 27  2  0  0  0  0
 22 23  2  0  0  0  0
 22 41  1  0  0  0  0
 23 24  1  0  0  0  0
 23 42  1  0  0  0  0
 24 25  1  0  0  0  0
 24 26  2  0  0  0  0
 26 27  1  0  0  0  0
 26 43  1  0  0  0  0
M  END
$$$$
