
 OpenBabel06282218493D

 46 49  0  0  0  0  0  0  0  0999 V2000
    0.2114   -1.1650   -0.5263 C   0  0  0  0  0  0  0  0  0  0  0  0
    0.0689   -0.5510   -1.7977 O   0  0  0  0  0  0  0  0  0  0  0  0
    0.8745    0.6497   -2.1425 C   0  0  0  0  0  0  0  0  0  0  0  0
   -0.1240    1.2553   -3.5443 C   0  0  0  0  0  0  0  0  0  0  0  0
   -1.3041    0.8153   -3.4132 O   0  0  0  0  0  0  0  0  0  0  0  0
    0.5881    2.4084   -4.9559 N   0  0  0  0  0  0  0  0  0  0  0  0
    2.0354    2.6495   -5.1172 C   0  0  0  0  0  0  0  0  0  0  0  0
    2.6120    3.9126   -4.8229 C   0  0  0  0  0  0  0  0  0  0  0  0
    2.3971    4.7249   -3.7283 N   0  0  0  0  0  0  0  0  0  0  0  0
    1.4158    4.3666   -2.8966 C   0  0  0  0  0  0  0  0  0  0  0  0
    0.7536    3.2338   -3.2576 C   0  0  0  0  0  0  0  0  0  0  0  0
   -0.9133    3.3417   -3.8008 C   0  0  0  0  0  0  0  0  0  0  0  0
   -1.5684    2.2750   -5.0562 C   0  0  0  0  0  0  0  0  0  0  0  0
   -0.6567    0.9052   -5.7413 C   0  0  0  0  0  0  0  0  0  0  0  0
   -1.2443    0.2071   -6.9351 C   0  0  0  0  0  0  0  0  0  0  0  0
   -0.5964   -0.9420   -7.2629 F   0  0  0  0  0  0  0  0  0  0  0  0
   -2.5566   -0.1112   -6.7890 F   0  0  0  0  0  0  0  0  0  0  0  0
   -1.1762    0.9996   -8.0441 F   0  0  0  0  0  0  0  0  0  0  0  0
    0.9898    0.5629   -5.2147 C   0  0  0  0  0  0  0  0  0  0  0  0
    1.6543    1.9200   -4.1791 C   0  0  0  0  0  0  0  0  0  0  0  0
    2.3284    0.1073   -2.2438 C   0  0  0  0  0  0  0  0  0  0  0  0
    3.1070    0.3441   -0.9519 C   0  0  0  0  0  0  0  0  0  0  0  0
    3.0906    1.7224   -0.5821 O   0  0  0  0  0  0  0  0  0  0  0  0
    1.8223    2.1524   -0.3089 C   0  0  0  0  0  0  0  0  0  0  0  0
    1.6960    3.1728    0.6352 C   0  0  0  0  0  0  0  0  0  0  0  0
    0.4341    3.6705    0.9620 C   0  0  0  0  0  0  0  0  0  0  0  0
   -0.6969    3.1321    0.3547 C   0  0  0  0  0  0  0  0  0  0  0  0
   -2.2528    3.7554    0.7390 Cl  0  0  0  0  0  0  0  0  0  0  0  0
   -0.5726    2.1177   -0.5935 C   0  0  0  0  0  0  0  0  0  0  0  0
    0.7003    1.6446   -0.9740 C   0  0  0  0  0  0  0  0  0  0  0  0
   -0.5949   -1.8972   -0.4206 H   0  0  0  0  0  0  0  0  0  0  0  0
    0.1157   -0.4619    0.3045 H   0  0  0  0  0  0  0  0  0  0  0  0
    1.1541   -1.7112   -0.4569 H   0  0  0  0  0  0  0  0  0  0  0  0
    0.0954    2.9297   -5.6909 H   0  0  0  0  0  0  0  0  0  0  0  0
    3.3653    4.3041   -5.5071 H   0  0  0  0  0  0  0  0  0  0  0  0
    1.0257    5.1278   -2.2376 H   0  0  0  0  0  0  0  0  0  0  0  0
   -1.5234    4.1787   -3.4648 H   0  0  0  0  0  0  0  0  0  0  0  0
   -2.5897    2.4420   -5.3996 H   0  0  0  0  0  0  0  0  0  0  0  0
    1.6403   -0.0179   -5.8696 H   0  0  0  0  0  0  0  0  0  0  0  0
    2.9393    0.5696   -3.0170 H   0  0  0  0  0  0  0  0  0  0  0  0
    2.3327   -0.9646   -2.4783 H   0  0  0  0  0  0  0  0  0  0  0  0
    2.7513   -0.2629   -0.1121 H   0  0  0  0  0  0  0  0  0  0  0  0
    4.1554    0.0624   -1.1029 H   0  0  0  0  0  0  0  0  0  0  0  0
    2.5823    3.5823    1.1134 H   0  0  0  0  0  0  0  0  0  0  0  0
    0.3410    4.4733    1.6883 H   0  0  0  0  0  0  0  0  0  0  0  0
   -1.4663    1.7167   -1.0703 H   0  0  0  0  0  0  0  0  0  0  0  0
  1  2  1  0  0  0  0
  1 31  1  0  0  0  0
  1 32  1  0  0  0  0
  1 33  1  0  0  0  0
  2  3  1  0  0  0  0
  3  4  1  0  0  0  0
  3 21  1  0  0  0  0
  3 30  1  0  0  0  0
  4  5  2  0  0  0  0
  4  6  1  0  0  0  0
  6  7  1  0  0  0  0
  6 34  1  0  0  0  0
  7  8  1  0  0  0  0
  7 20  2  0  0  0  0
  8  9  2  0  0  0  0
  8 35  1  0  0  0  0
  9 10  1  0  0  0  0
 10 11  2  0  0  0  0
 10 36  1  0  0  0  0
 11 12  1  0  0  0  0
 11 20  1  0  0  0  0
 12 13  2  0  0  0  0
 12 37  1  0  0  0  0
 13 14  1  0  0  0  0
 13 38  1  0  0  0  0
 14 15  1  0  0  0  0
 14 19  2  0  0  0  0
 15 16  1  0  0  0  0
 15 17  1  0  0  0  0
 15 18  1  0  0  0  0
 19 20  1  0  0  0  0
 19 39  1  0  0  0  0
 21 22  1  0  0  0  0
 21 40  1  0  0  0  0
 21 41  1  0  0  0  0
 22 23  1  0  0  0  0
 22 42  1  0  0  0  0
 22 43  1  0  0  0  0
 23 24  1  0  0  0  0
 24 25  1  0  0  0  0
 24 30  2  0  0  0  0
 25 26  2  0  0  0  0
 25 44  1  0  0  0  0
 26 27  1  0  0  0  0
 26 45  1  0  0  0  0
 27 28  1  0  0  0  0
 27 29  2  0  0  0  0
 29 30  1  0  0  0  0
 29 46  1  0  0  0  0
M  END
$$$$
