
 OpenBabel06282218493D

 43 46  0  0  0  0  0  0  0  0999 V2000
    2.2218    0.8915    1.1387 C   0  0  0  0  0  0  0  0  0  0  0  0
    1.4602   -0.1376    0.5280 O   0  0  0  0  0  0  0  0  0  0  0  0
    1.5358   -0.3061   -0.9155 C   0  0  0  0  0  0  0  0  0  0  0  0
    0.7087    0.8412   -1.6234 C   0  0  0  0  0  0  0  0  0  0  0  0
    0.3787    1.8636   -1.0066 O   0  0  0  0  0  0  0  0  0  0  0  0
    0.2362    0.7920   -2.9068 N   0  0  0  0  0  0  0  0  0  0  0  0
    0.3529   -0.1643   -3.9295 C   0  0  0  0  0  0  0  0  0  0  0  0
    1.5857   -0.6406   -4.3657 C   0  0  0  0  0  0  0  0  0  0  0  0
    1.7485   -1.5462   -5.3542 N   0  0  0  0  0  0  0  0  0  0  0  0
    0.6245   -1.9897   -5.9561 C   0  0  0  0  0  0  0  0  0  0  0  0
   -0.6655   -1.5648   -5.6364 C   0  0  0  0  0  0  0  0  0  0  0  0
   -1.7940   -2.0732   -6.3049 C   0  0  0  0  0  0  0  0  0  0  0  0
   -3.0759   -1.6509   -5.9586 C   0  0  0  0  0  0  0  0  0  0  0  0
   -3.2443   -0.7192   -4.9425 C   0  0  0  0  0  0  0  0  0  0  0  0
   -2.1305   -0.2087   -4.2714 C   0  0  0  0  0  0  0  0  0  0  0  0
   -0.8131   -0.6126   -4.6029 C   0  0  0  0  0  0  0  0  0  0  0  0
    0.7806   -1.6416   -1.1111 C   0  0  0  0  0  0  0  0  0  0  0  0
    1.4497   -2.7901   -0.3765 C   0  0  0  0  0  0  0  0  0  0  0  0
    3.0376   -3.1940   -1.1454 S   0  0  0  0  0  0  0  0  0  0  0  0
    3.7122   -1.5716   -1.4617 C   0  0  0  0  0  0  0  0  0  0  0  0
    5.0585   -1.5529   -1.8702 C   0  0  0  0  0  0  0  0  0  0  0  0
    5.7107   -0.3561   -2.1662 C   0  0  0  0  0  0  0  0  0  0  0  0
    5.0187    0.8394   -2.0583 C   0  0  0  0  0  0  0  0  0  0  0  0
    5.8086    2.3249   -2.4114 Cl  0  0  0  0  0  0  0  0  0  0  0  0
    3.6811    0.8417   -1.6644 C   0  0  0  0  0  0  0  0  0  0  0  0
    2.9961   -0.3630   -1.3657 C   0  0  0  0  0  0  0  0  0  0  0  0
    1.8738    0.9931    2.1707 H   0  0  0  0  0  0  0  0  0  0  0  0
    2.1003    1.8588    0.6484 H   0  0  0  0  0  0  0  0  0  0  0  0
    3.2787    0.6139    1.1779 H   0  0  0  0  0  0  0  0  0  0  0  0
   -0.4821    1.4972   -3.0339 H   0  0  0  0  0  0  0  0  0  0  0  0
    2.5199   -0.2635   -3.9706 H   0  0  0  0  0  0  0  0  0  0  0  0
    0.7977   -2.7257   -6.7378 H   0  0  0  0  0  0  0  0  0  0  0  0
   -1.6801   -2.8105   -7.0971 H   0  0  0  0  0  0  0  0  0  0  0  0
   -3.9422   -2.0547   -6.4766 H   0  0  0  0  0  0  0  0  0  0  0  0
   -4.2430   -0.3935   -4.6615 H   0  0  0  0  0  0  0  0  0  0  0  0
   -2.3147    0.4984   -3.4660 H   0  0  0  0  0  0  0  0  0  0  0  0
    0.6650   -1.9262   -2.1581 H   0  0  0  0  0  0  0  0  0  0  0  0
   -0.2382   -1.5362   -0.7128 H   0  0  0  0  0  0  0  0  0  0  0  0
    1.6024   -2.5772    0.6857 H   0  0  0  0  0  0  0  0  0  0  0  0
    0.8169   -3.6820   -0.4354 H   0  0  0  0  0  0  0  0  0  0  0  0
    5.6165   -2.4842   -1.9616 H   0  0  0  0  0  0  0  0  0  0  0  0
    6.7520   -0.3704   -2.4762 H   0  0  0  0  0  0  0  0  0  0  0  0
    3.1722    1.8015   -1.5814 H   0  0  0  0  0  0  0  0  0  0  0  0
  1  2  1  0  0  0  0
  1 27  1  0  0  0  0
  1 28  1  0  0  0  0
  1 29  1  0  0  0  0
  2  3  1  0  0  0  0
  3  4  1  0  0  0  0
  3 17  1  0  0  0  0
  3 26  1  0  0  0  0
  4  5  2  0  0  0  0
  4  6  1  0  0  0  0
  6  7  1  0  0  0  0
  6 30  1  0  0  0  0
  7  8  1  0  0  0  0
  7 16  2  0  0  0  0
  8  9  2  0  0  0  0
  8 31  1  0  0  0  0
  9 10  1  0  0  0  0
 10 11  2  0  0  0  0
 10 32  1  0  0  0  0
 11 12  1  0  0  0  0
 11 16  1  0  0  0  0
 12 13  2  0  0  0  0
 12 33  1  0  0  0  0
 13 14  1  0  0  0  0
 13 34  1  0  0  0  0
 14 15  2  0  0  0  0
 14 35  1  0  0  0  0
 15 16  1  0  0  0  0
 15 36  1  0  0  0  0
 17 18  1  0  0  0  0
 17 37  1  0  0  0  0
 17 38  1  0  0  0  0
 18 19  1  0  0  0  0
 18 39  1  0  0  0  0
 18 40  1  0  0  0  0
 19 20  1  0  0  0  0
 20 21  1  0  0  0  0
 20 26  2  0  0  0  0
 21 22  2  0  0  0  0
 21 41  1  0  0  0  0
 22 23  1  0  0  0  0
 22 42  1  0  0  0  0
 23 24  1  0  0  0  0
 23 25  2  0  0  0  0
 25 26  1  0  0  0  0
 25 43  1  0  0  0  0
M  END
$$$$
