
 OpenBabel06282218493D

 49 52  0  0  0  0  0  0  0  0999 V2000
    1.3451   -0.3335   -0.1234 O   0  0  0  0  0  0  0  0  0  0  0  0
    2.5503   -0.0559   -0.0530 C   0  0  0  0  0  0  0  0  0  0  0  0
    3.3728   -0.7758   -0.8796 N   0  0  0  0  0  0  0  0  0  0  0  0
    4.7604   -0.9998   -0.8359 C   0  0  0  0  0  0  0  0  0  0  0  0
    5.4609   -0.9028   -2.0376 C   0  0  0  0  0  0  0  0  0  0  0  0
    6.7957   -1.0558   -2.1612 N   0  0  0  0  0  0  0  0  0  0  0  0
    7.4680   -1.3456   -1.0262 C   0  0  0  0  0  0  0  0  0  0  0  0
    6.8753   -1.5391    0.2239 C   0  0  0  0  0  0  0  0  0  0  0  0
    7.6405   -1.8957    1.3493 C   0  0  0  0  0  0  0  0  0  0  0  0
    7.0274   -2.1569    2.5727 C   0  0  0  0  0  0  0  0  0  0  0  0
    5.6445   -2.0850    2.6787 C   0  0  0  0  0  0  0  0  0  0  0  0
    4.8776   -1.7221    1.5683 C   0  0  0  0  0  0  0  0  0  0  0  0
    5.4723   -1.3973    0.3246 C   0  0  0  0  0  0  0  0  0  0  0  0
    3.0638    1.1957    0.7970 C   0  0  0  0  0  0  0  0  0  0  0  0
    4.4958    1.2798    0.7711 O   0  0  0  0  0  0  0  0  0  0  0  0
    5.2345    1.9207    1.8053 C   0  0  0  0  0  0  0  0  0  0  0  0
    5.3391    3.4298    1.6356 C   0  0  0  0  0  0  0  0  0  0  0  0
    5.1424    4.1370    2.9506 C   0  0  0  0  0  0  0  0  0  0  0  0
    6.0378    3.7187    3.8704 F   0  0  0  0  0  0  0  0  0  0  0  0
    5.2939    5.4709    2.8056 F   0  0  0  0  0  0  0  0  0  0  0  0
    3.9071    3.9151    3.4465 F   0  0  0  0  0  0  0  0  0  0  0  0
    2.4507    1.0560    2.2085 C   0  0  0  0  0  0  0  0  0  0  0  0
    1.0028    1.5180    2.2340 C   0  0  0  0  0  0  0  0  0  0  0  0
    0.9055    2.8979    1.8821 O   0  0  0  0  0  0  0  0  0  0  0  0
    1.4974    3.2067    0.6894 C   0  0  0  0  0  0  0  0  0  0  0  0
    1.0483    4.3811    0.0815 C   0  0  0  0  0  0  0  0  0  0  0  0
    1.5829    4.7904   -1.1396 C   0  0  0  0  0  0  0  0  0  0  0  0
    2.5719    4.0234   -1.7472 C   0  0  0  0  0  0  0  0  0  0  0  0
    3.2389    4.5223   -3.2518 Cl  0  0  0  0  0  0  0  0  0  0  0  0
    3.0383    2.8598   -1.1358 C   0  0  0  0  0  0  0  0  0  0  0  0
    2.5179    2.4451    0.1070 C   0  0  0  0  0  0  0  0  0  0  0  0
    2.8671   -1.2195   -1.6384 H   0  0  0  0  0  0  0  0  0  0  0  0
    4.9535   -0.6475   -2.9643 H   0  0  0  0  0  0  0  0  0  0  0  0
    8.5425   -1.4483   -1.1599 H   0  0  0  0  0  0  0  0  0  0  0  0
    8.7220   -1.9911    1.2728 H   0  0  0  0  0  0  0  0  0  0  0  0
    7.6272   -2.4421    3.4334 H   0  0  0  0  0  0  0  0  0  0  0  0
    5.1575   -2.3232    3.6212 H   0  0  0  0  0  0  0  0  0  0  0  0
    3.7971   -1.7207    1.6772 H   0  0  0  0  0  0  0  0  0  0  0  0
    4.9170    1.5986    2.7994 H   0  0  0  0  0  0  0  0  0  0  0  0
    6.2528    1.5213    1.7148 H   0  0  0  0  0  0  0  0  0  0  0  0
    6.3382    3.6750    1.2544 H   0  0  0  0  0  0  0  0  0  0  0  0
    4.6362    3.8247    0.9029 H   0  0  0  0  0  0  0  0  0  0  0  0
    2.9714    1.6807    2.9368 H   0  0  0  0  0  0  0  0  0  0  0  0
    2.5276    0.0260    2.5718 H   0  0  0  0  0  0  0  0  0  0  0  0
    0.3339    0.9297    1.5995 H   0  0  0  0  0  0  0  0  0  0  0  0
    0.6173    1.4234    3.2556 H   0  0  0  0  0  0  0  0  0  0  0  0
    0.2711    4.9729    0.5593 H   0  0  0  0  0  0  0  0  0  0  0  0
    1.2224    5.7022   -1.6076 H   0  0  0  0  0  0  0  0  0  0  0  0
    3.8303    2.2846   -1.6117 H   0  0  0  0  0  0  0  0  0  0  0  0
  1  2  2  0  0  0  0
  2  3  1  0  0  0  0
  2 14  1  0  0  0  0
  3  4  1  0  0  0  0
  3 32  1  0  0  0  0
  4  5  1  0  0  0  0
  4 13  2  0  0  0  0
  5  6  2  0  0  0  0
  5 33  1  0  0  0  0
  6  7  1  0  0  0  0
  7  8  2  0  0  0  0
  7 34  1  0  0  0  0
  8  9  1  0  0  0  0
  8 13  1  0  0  0  0
  9 10  2  0  0  0  0
  9 35  1  0  0  0  0
 10 11  1  0  0  0  0
 10 36  1  0  0  0  0
 11 12  2  0  0  0  0
 11 37  1  0  0  0  0
 12 13  1  0  0  0  0
 12 38  1  0  0  0  0
 14 15  1  0  0  0  0
 14 22  1  0  0  0  0
 14 31  1  0  0  0  0
 15 16  1  0  0  0  0
 16 17  1  0  0  0  0
 16 39  1  0  0  0  0
 16 40  1  0  0  0  0
 17 18  1  0  0  0  0
 17 41  1  0  0  0  0
 17 42  1  0  0  0  0
 18 19  1  0  0  0  0
 18 20  1  0  0  0  0
 18 21  1  0  0  0  0
 22 23  1  0  0  0  0
 22 43  1  0  0  0  0
 22 44  1  0  0  0  0
 23 24  1  0  0  0  0
 23 45  1  0  0  0  0
 23 46  1  0  0  0  0
 24 25  1  0  0  0  0
 25 26  1  0  0  0  0
 25 31  2  0  0  0  0
 26 27  2  0  0  0  0
 26 47  1  0  0  0  0
 27 28  1  0  0  0  0
 27 48  1  0  0  0  0
 28 29  1  0  0  0  0
 28 30  2  0  0  0  0
 30 31  1  0  0  0  0
 30 49  1  0  0  0  0
M  END
$$$$
