
 OpenBabel06282218493D

 43 46  0  0  0  0  0  0  0  0999 V2000
    1.3942    0.2432    1.5424 C   0  0  0  0  0  0  0  0  0  0  0  0
    1.9749   -1.0067    1.2043 O   0  0  0  0  0  0  0  0  0  0  0  0
    1.9118   -1.4185   -0.1764 C   0  0  0  0  0  0  0  0  0  0  0  0
    2.2960   -0.3124   -1.2491 C   0  0  0  0  0  0  0  0  0  0  0  0
    2.4102    0.8839   -0.9510 O   0  0  0  0  0  0  0  0  0  0  0  0
    2.5940   -0.6039   -2.5646 N   0  0  0  0  0  0  0  0  0  0  0  0
    1.7733   -1.4073   -3.3897 C   0  0  0  0  0  0  0  0  0  0  0  0
    2.0567   -2.7607   -3.5471 C   0  0  0  0  0  0  0  0  0  0  0  0
    1.3649   -3.5865   -4.3608 N   0  0  0  0  0  0  0  0  0  0  0  0
    0.3619   -3.0329   -5.0767 C   0  0  0  0  0  0  0  0  0  0  0  0
    0.0082   -1.6830   -5.0339 C   0  0  0  0  0  0  0  0  0  0  0  0
   -1.0344   -1.1714   -5.8252 C   0  0  0  0  0  0  0  0  0  0  0  0
   -1.3578    0.1772   -5.7616 C   0  0  0  0  0  0  0  0  0  0  0  0
   -2.3504    0.6545   -6.5229 F   0  0  0  0  0  0  0  0  0  0  0  0
   -0.6699    1.0352   -4.9189 C   0  0  0  0  0  0  0  0  0  0  0  0
    0.3652    0.5364   -4.1247 C   0  0  0  0  0  0  0  0  0  0  0  0
    0.7352   -0.8325   -4.1677 C   0  0  0  0  0  0  0  0  0  0  0  0
    0.4963   -1.9731   -0.4193 C   0  0  0  0  0  0  0  0  0  0  0  0
    0.3366   -3.2924    0.3167 C   0  0  0  0  0  0  0  0  0  0  0  0
    1.2242   -4.2798   -0.2093 O   0  0  0  0  0  0  0  0  0  0  0  0
    2.5348   -3.8887   -0.2117 C   0  0  0  0  0  0  0  0  0  0  0  0
    3.4768   -4.9187   -0.2628 C   0  0  0  0  0  0  0  0  0  0  0  0
    4.8402   -4.6248   -0.2518 C   0  0  0  0  0  0  0  0  0  0  0  0
    5.2560   -3.2985   -0.1881 C   0  0  0  0  0  0  0  0  0  0  0  0
    6.9357   -2.9289   -0.1542 Cl  0  0  0  0  0  0  0  0  0  0  0  0
    4.3193   -2.2654   -0.1574 C   0  0  0  0  0  0  0  0  0  0  0  0
    2.9391   -2.5477   -0.2004 C   0  0  0  0  0  0  0  0  0  0  0  0
    1.0959    0.2002    2.5939 H   0  0  0  0  0  0  0  0  0  0  0  0
    0.5096    0.4789    0.9456 H   0  0  0  0  0  0  0  0  0  0  0  0
    2.1402    1.0368    1.4504 H   0  0  0  0  0  0  0  0  0  0  0  0
    2.7827    0.3025   -2.9861 H   0  0  0  0  0  0  0  0  0  0  0  0
    2.8874   -3.2316   -3.0308 H   0  0  0  0  0  0  0  0  0  0  0  0
   -0.1662   -3.7341   -5.7194 H   0  0  0  0  0  0  0  0  0  0  0  0
   -1.5996   -1.8111   -6.4974 H   0  0  0  0  0  0  0  0  0  0  0  0
   -0.9420    2.0858   -4.8808 H   0  0  0  0  0  0  0  0  0  0  0  0
    0.8729    1.2365   -3.4639 H   0  0  0  0  0  0  0  0  0  0  0  0
    0.2972   -2.1531   -1.4757 H   0  0  0  0  0  0  0  0  0  0  0  0
   -0.2721   -1.2741   -0.0744 H   0  0  0  0  0  0  0  0  0  0  0  0
    0.4902   -3.1939    1.3986 H   0  0  0  0  0  0  0  0  0  0  0  0
   -0.6822   -3.6685    0.1731 H   0  0  0  0  0  0  0  0  0  0  0  0
    3.1451   -5.9536   -0.2961 H   0  0  0  0  0  0  0  0  0  0  0  0
    5.5669   -5.4318   -0.2800 H   0  0  0  0  0  0  0  0  0  0  0  0
    4.6638   -1.2350   -0.0902 H   0  0  0  0  0  0  0  0  0  0  0  0
  1  2  1  0  0  0  0
  1 28  1  0  0  0  0
  1 29  1  0  0  0  0
  1 30  1  0  0  0  0
  2  3  1  0  0  0  0
  3  4  1  0  0  0  0
  3 18  1  0  0  0  0
  3 27  1  0  0  0  0
  4  5  2  0  0  0  0
  4  6  1  0  0  0  0
  6  7  1  0  0  0  0
  6 31  1  0  0  0  0
  7  8  1  0  0  0  0
  7 17  2  0  0  0  0
  8  9  2  0  0  0  0
  8 32  1  0  0  0  0
  9 10  1  0  0  0  0
 10 11  2  0  0  0  0
 10 33  1  0  0  0  0
 11 12  1  0  0  0  0
 11 17  1  0  0  0  0
 12 13  2  0  0  0  0
 12 34  1  0  0  0  0
 13 14  1  0  0  0  0
 13 15  1  0  0  0  0
 15 16  2  0  0  0  0
 15 35  1  0  0  0  0
 16 17  1  0  0  0  0
 16 36  1  0  0  0  0
 18 19  1  0  0  0  0
 18 37  1  0  0  0  0
 18 38  1  0  0  0  0
 19 20  1  0  0  0  0
 19 39  1  0  0  0  0
 19 40  1  0  0  0  0
 20 21  1  0  0  0  0
 21 22  1  0  0  0  0
 21 27  2  0  0  0  0
 22 23  2  0  0  0  0
 22 41  1  0  0  0  0
 23 24  1  0  0  0  0
 23 42  1  0  0  0  0
 24 25  1  0  0  0  0
 24 26  2  0  0  0  0
 26 27  1  0  0  0  0
 26 43  1  0  0  0  0
M  END
$$$$
