lig_CHEMBL3402752_30000_12
  -OEChem-01272013113D

 43 46  0     0  0  0  0  0  0999 V2000
   25.8200   33.9400   52.0900 C   0  0  0  0  0  0  0  0  0  0  0  0
   24.5800   33.5500   52.8400 C   0  0  0  0  0  0  0  0  0  0  0  0
   24.5000   33.5200   54.1500 N   0  0  0  0  0  0  0  0  0  0  0  0
   23.3100   33.1500   54.6000 C   0  0  0  0  0  0  0  0  0  0  0  0
   22.3800   32.9200   53.5900 C   0  0  0  0  0  0  0  0  0  0  0  0
   23.1100   33.1300   52.0400 S   0  0  0  0  0  0  0  0  0  0  0  0
   23.0800   32.9400   56.0800 C   0  0  0  0  0  0  0  0  0  0  0  0
   24.1200   33.0200   57.0100 C   0  0  0  0  0  0  0  0  0  0  0  0
   23.9100   32.6800   58.3500 C   0  0  0  0  0  0  0  0  0  0  0  0
   22.6500   32.2500   58.7700 C   0  0  0  0  0  0  0  0  0  0  0  0
   21.5900   32.2000   57.8600 C   0  0  0  0  0  0  0  0  0  0  0  0
   20.2000   31.7400   58.3000 C   0  0  0  0  0  0  0  0  0  0  0  0
   19.9100   30.3500   57.9300 N   0  0  0  0  0  0  0  0  0  0  0  0
   19.4500   30.1400   56.6200 N   0  0  0  0  0  0  0  0  0  0  0  0
   19.2000   28.9500   56.1600 C   0  0  0  0  0  0  0  0  0  0  0  0
   19.4500   27.8400   57.0600 C   0  0  0  0  0  0  0  0  0  0  0  0
   19.9200   28.0300   58.3200 C   0  0  0  0  0  0  0  0  0  0  0  0
   20.2000   29.3600   58.8400 C   0  0  0  0  0  0  0  0  0  0  0  0
   20.6500   29.5300   59.9800 O   0  0  0  0  0  0  0  0  0  0  0  0
   18.6800   28.7100   54.7900 C   0  0  0  0  0  0  0  0  0  0  0  0
   18.8700   29.6800   53.7900 C   0  0  0  0  0  0  0  0  0  0  0  0
   18.4000   29.4600   52.4900 C   0  0  0  0  0  0  0  0  0  0  0  0
   18.5900   30.4000   51.5400 F   0  0  0  0  0  0  0  0  0  0  0  0
   17.7400   28.2800   52.1800 C   0  0  0  0  0  0  0  0  0  0  0  0
   17.5400   27.3100   53.1600 C   0  0  0  0  0  0  0  0  0  0  0  0
   16.8800   26.1700   52.8600 F   0  0  0  0  0  0  0  0  0  0  0  0
   18.0100   27.5300   54.4500 C   0  0  0  0  0  0  0  0  0  0  0  0
   21.8000   32.5700   56.5300 C   0  0  0  0  0  0  0  0  0  0  0  0
   25.6100   34.7600   51.4100 H   0  0  0  0  0  0  0  0  0  0  0  0
   26.1900   33.1300   51.4600 H   0  0  0  0  0  0  0  0  0  0  0  0
   26.6400   34.2400   52.7400 H   0  0  0  0  0  0  0  0  0  0  0  0
   21.3500   32.6100   53.6700 H   0  0  0  0  0  0  0  0  0  0  0  0
   25.1200   33.3000   56.7000 H   0  0  0  0  0  0  0  0  0  0  0  0
   24.7300   32.7200   59.0500 H   0  0  0  0  0  0  0  0  0  0  0  0
   22.5000   31.9300   59.7900 H   0  0  0  0  0  0  0  0  0  0  0  0
   20.0800   31.9200   59.3700 H   0  0  0  0  0  0  0  0  0  0  0  0
   19.4500   32.3900   57.8400 H   0  0  0  0  0  0  0  0  0  0  0  0
   19.2900   26.8200   56.7500 H   0  0  0  0  0  0  0  0  0  0  0  0
   20.1100   27.1800   58.9500 H   0  0  0  0  0  0  0  0  0  0  0  0
   19.3900   30.6000   53.9900 H   0  0  0  0  0  0  0  0  0  0  0  0
   17.3800   28.1100   51.1700 H   0  0  0  0  0  0  0  0  0  0  0  0
   17.8300   26.7500   55.1800 H   0  0  0  0  0  0  0  0  0  0  0  0
   20.9800   32.5000   55.8400 H   0  0  0  0  0  0  0  0  0  0  0  0
 24 41  1  0  0  0  0
  1 29  1  0  0  0  0
  1 30  1  0  0  0  0
 22 23  1  0  0  0  0
  2  6  1  0  0  0  0
  5  6  1  0  0  0  0
  1 31  1  0  0  0  0
  1  2  1  0  0  0  0
 22 24  2  0  0  0  0
 24 25  1  0  0  0  0
 21 22  1  0  0  0  0
  2  3  2  0  0  0  0
 25 26  1  0  0  0  0
 25 27  2  0  0  0  0
  5 32  1  0  0  0  0
  4  5  2  0  0  0  0
 21 40  1  0  0  0  0
 20 21  2  0  0  0  0
  3  4  1  0  0  0  0
 20 27  1  0  0  0  0
 27 42  1  0  0  0  0
  4  7  1  0  0  0  0
 15 20  1  0  0  0  0
 28 43  1  0  0  0  0
  7 28  2  0  0  0  0
  7  8  1  0  0  0  0
 14 15  2  0  0  0  0
 15 16  1  0  0  0  0
 11 28  1  0  0  0  0
 13 14  1  0  0  0  0
  8 33  1  0  0  0  0
 16 38  1  0  0  0  0
  8  9  2  0  0  0  0
 16 17  2  0  0  0  0
 12 37  1  0  0  0  0
 11 12  1  0  0  0  0
 10 11  2  0  0  0  0
 12 13  1  0  0  0  0
 13 18  1  0  0  0  0
 12 36  1  0  0  0  0
 17 18  1  0  0  0  0
 17 39  1  0  0  0  0
  9 10  1  0  0  0  0
  9 34  1  0  0  0  0
 10 35  1  0  0  0  0
 18 19  2  0  0  0  0
M  END
$$$$
