CatS_29
 OpenBabel05281909343D

 96100  0  0  1  0  0  0  0  0999 V2000
    4.3089   15.6470   -3.5180 C   0  0  0  0  0  0  0  0  0  0  0  0
    3.4302   16.9049   -3.5880 C   0  0  0  0  0  0  0  0  0  0  0  0
    2.2311   16.6400   -4.3390 O   0  0  0  0  0  0  0  0  0  0  0  0
    1.3871   17.6880   -4.5420 C   0  0  0  0  0  0  0  0  0  0  0  0
    1.6510   18.7711   -4.0260 O   0  0  0  0  0  0  0  0  0  0  0  0
    0.2860   17.5010   -5.3040 N   0  0  0  0  0  0  0  0  0  0  0  0
   -0.1251   16.1701   -5.7829 C   0  0  1  0  0  0  0  0  0  0  0  0
   -1.1911   15.5860   -4.8380 C   0  0  0  0  0  0  0  0  0  0  0  0
   -1.6669   14.2211   -5.3740 C   0  0  0  0  0  0  0  0  0  0  0  0
   -2.2339   14.3440   -6.7310 N   0  3  1  0  0  0  0  0  0  0  0  0
   -1.2229   14.8909   -7.6591 C   0  0  0  0  0  0  0  0  0  0  0  0
   -0.7219   16.2749   -7.1990 C   0  0  0  0  0  0  0  0  0  0  0  0
   -2.7050   13.0260   -7.1969 C   0  0  0  0  0  0  0  0  0  0  0  0
   -3.4130   13.0570   -8.5709 C   0  0  0  0  0  0  0  0  0  0  0  0
   -3.3400   11.6550   -9.2000 C   0  0  0  0  0  0  0  0  0  0  0  0
   -4.3390   10.6961   -8.7089 N   0  0  0  0  0  0  0  0  0  0  0  0
   -5.5311   10.3250   -9.2410 C   0  0  0  0  0  0  0  0  0  0  0  0
   -6.2050    9.4821   -8.4580 C   0  0  0  0  0  0  0  0  0  0  0  0
   -5.3400    9.2810   -7.3581 C   0  0  0  0  0  0  0  0  0  0  0  0
   -4.2649   10.0230   -7.5360 N   0  0  0  0  0  0  0  0  0  0  0  0
   -5.5280    8.4130   -6.2061 C   0  0  0  0  0  0  0  0  0  0  0  0
   -4.4679    7.7389   -5.6280 C   0  0  0  0  0  0  0  0  0  0  0  0
   -4.6601    6.9419   -4.5279 C   0  0  0  0  0  0  0  0  0  0  0  0
   -5.9099    6.7700   -3.9698 C   0  0  0  0  0  0  0  0  0  0  0  0
   -6.9760    7.4400   -4.5580 C   0  0  0  0  0  0  0  0  0  0  0  0
   -6.7840    8.2540   -5.6509 C   0  0  0  0  0  0  0  0  0  0  0  0
   -8.6621    7.2889   -3.9531 S   0  0  0  0  0  0  0  0  0  0  0  0
   -9.2130    8.9470   -3.4730 C   0  0  0  0  0  0  0  0  0  0  0  0
   -8.0200    9.8150   -3.0209 C   0  0  0  0  0  0  0  0  0  0  0  0
   -8.4071   10.8679   -2.0651 N   0  3  0  0  0  0  0  0  0  0  0  0
   -9.7689   11.3441   -2.3740 C   0  0  0  0  0  0  0  0  0  0  0  0
  -10.2310   12.4111   -1.3620 C   0  0  0  0  0  0  0  0  0  0  0  0
   -9.2441   13.5921   -1.3599 C   0  0  0  0  0  0  0  0  0  0  0  0
   -7.8199   13.0739   -1.0851 C   0  0  0  0  0  0  0  0  0  0  0  0
   -7.4530   11.9950   -2.1231 C   0  0  0  0  0  0  0  0  0  0  0  0
   -5.9451    5.8569   -2.7420 C   0  0  0  0  0  0  0  0  0  0  0  0
   -4.9471    4.8881   -2.7811 F   0  0  0  0  0  0  0  0  0  0  0  0
   -7.1420    5.1660   -2.5930 F   0  0  0  0  0  0  0  0  0  0  0  0
   -5.7381    6.5910   -1.5781 F   0  0  0  0  0  0  0  0  0  0  0  0
   -7.5840    8.9490   -8.8239 C   0  0  0  0  0  0  0  0  0  0  0  0
   -8.2561    9.7460   -9.8750 N   0  0  0  0  0  0  0  0  0  0  0  0
   -7.3181    9.9450  -11.0011 C   0  0  0  0  0  0  0  0  0  0  0  0
   -6.0939   10.7929  -10.5730 C   0  0  0  0  0  0  0  0  0  0  0  0
   -9.7910    9.3099  -10.1700 S   0  0  0  0  0  0  0  0  0  0  0  0
   -9.8659    7.9421   -9.7661 O   0  0  0  0  0  0  0  0  0  0  0  0
  -10.0690    9.5799  -11.5450 O   0  0  0  0  0  0  0  0  0  0  0  0
  -10.9189   10.2890   -9.1310 C   0  0  0  0  0  0  0  0  0  0  0  0
    5.3190   15.8910   -2.9179 H   0  0  0  0  0  0  0  0  0  0  0  0
    3.7121   14.7719   -2.9542 H   0  0  0  0  0  0  0  0  0  0  0  0
    4.5839   15.2890   -4.6301 H   0  0  0  0  0  0  0  0  0  0  0  0
    4.0440   17.7890   -4.1189 H   0  0  0  0  0  0  0  0  0  0  0  0
    3.1340   17.2430   -2.4751 H   0  0  0  0  0  0  0  0  0  0  0  0
   -0.2091   18.2001   -5.5070 H   0  0  0  0  0  0  0  0  0  0  0  0
    0.8139   15.4249   -5.8330 H   0  0  0  0  0  0  0  0  0  0  0  0
   -0.7249   15.4541   -3.7391 H   0  0  0  0  0  0  0  0  0  0  0  0
   -2.1311   16.3300   -4.7860 H   0  0  0  0  0  0  0  0  0  0  0  0
   -2.5059   13.8240   -4.6130 H   0  0  0  0  0  0  0  0  0  0  0  0
   -0.7429   13.4541   -5.3880 H   0  0  0  0  0  0  0  0  0  0  0  0
   -1.7000   15.0320   -8.7500 H   0  0  0  0  0  0  0  0  0  0  0  0
   -0.2800   14.1500   -7.7229 H   0  0  0  0  0  0  0  0  0  0  0  0
    0.1170   16.6710   -7.9591 H   0  0  0  0  0  0  0  0  0  0  0  0
   -1.6450   17.0420   -7.1910 H   0  0  0  0  0  0  0  0  0  0  0  0
   -3.5301   12.6210   -6.4258 H   0  0  0  0  0  0  0  0  0  0  0  0
   -1.8130   12.2240   -7.2250 H   0  0  0  0  0  0  0  0  0  0  0  0
   -4.5660   13.3630   -8.4240 H   0  0  0  0  0  0  0  0  0  0  0  0
   -2.8850   13.8321   -9.3199 H   0  0  0  0  0  0  0  0  0  0  0  0
   -3.4750   11.7689  -10.3870 H   0  0  0  0  0  0  0  0  0  0  0  0
   -2.2549   11.1929   -8.9840 H   0  0  0  0  0  0  0  0  0  0  0  0
   -3.5490    7.8379   -6.0091 H   0  0  0  0  0  0  0  0  0  0  0  0
   -3.8721    6.4760   -4.1251 H   0  0  0  0  0  0  0  0  0  0  0  0
   -7.5650    8.7319   -6.0519 H   0  0  0  0  0  0  0  0  0  0  0  0
   -9.7310    9.4500   -4.4321 H   0  0  0  0  0  0  0  0  0  0  0  0
  -10.0249    8.8690   -2.5919 H   0  0  0  0  0  0  0  0  0  0  0  0
   -7.5951   10.3440   -4.0119 H   0  0  0  0  0  0  0  0  0  0  0  0
   -7.1411    9.1330   -2.5670 H   0  0  0  0  0  0  0  0  0  0  0  0
  -10.5490   10.4350   -2.3161 H   0  0  0  0  0  0  0  0  0  0  0  0
   -9.7888   11.8009   -3.4841 H   0  0  0  0  0  0  0  0  0  0  0  0
  -10.2649   11.9170   -0.2701 H   0  0  0  0  0  0  0  0  0  0  0  0
  -11.3259   12.8010   -1.6600 H   0  0  0  0  0  0  0  0  0  0  0  0
   -9.5601   14.3840   -0.5171 H   0  0  0  0  0  0  0  0  0  0  0  0
   -9.2640   14.1291   -2.4330 H   0  0  0  0  0  0  0  0  0  0  0  0
   -7.0419   13.9839   -1.1570 H   0  0  0  0  0  0  0  0  0  0  0  0
   -7.7741   12.5989    0.0151 H   0  0  0  0  0  0  0  0  0  0  0  0
   -7.4590   12.4810   -3.2210 H   0  0  0  0  0  0  0  0  0  0  0  0
   -6.3401   11.6220   -1.8749 H   0  0  0  0  0  0  0  0  0  0  0  0
   -7.4861    7.8079   -9.1821 H   0  0  0  0  0  0  0  0  0  0  0  0
   -8.2800    8.9950   -7.8460 H   0  0  0  0  0  0  0  0  0  0  0  0
   -6.9429    8.8781  -11.4010 H   0  0  0  0  0  0  0  0  0  0  0  0
   -7.8699   10.5230  -11.8950 H   0  0  0  0  0  0  0  0  0  0  0  0
   -6.4270   11.9410  -10.4690 H   0  0  0  0  0  0  0  0  0  0  0  0
   -5.2559   10.6981  -11.4261 H   0  0  0  0  0  0  0  0  0  0  0  0
  -11.0141   11.4131   -9.5421 H   0  0  0  0  0  0  0  0  0  0  0  0
  -12.0139    9.7990   -9.1410 H   0  0  0  0  0  0  0  0  0  0  0  0
  -10.5202   10.3160   -7.9991 H   0  0  0  0  0  0  0  0  0  0  0  0
   -2.9464   14.9139   -6.7056 H   0  0  0  0  0  0  0  0  0  0  0  0
   -8.4055   10.5163   -1.2231 H   0  0  0  0  0  0  0  0  0  0  0  0
  1  2  1  0  0  0  0
  1 48  1  0  0  0  0
  1 49  1  0  0  0  0
  1 50  1  0  0  0  0
  2  3  1  0  0  0  0
  2 51  1  0  0  0  0
  2 52  1  0  0  0  0
  3  4  1  0  0  0  0
  4  5  2  0  0  0  0
  4  6  1  0  0  0  0
  6  7  1  0  0  0  0
  6 53  1  0  0  0  0
  7  8  1  0  0  0  0
  7 12  1  0  0  0  0
  7 54  1  6  0  0  0
  8  9  1  0  0  0  0
  8 55  1  0  0  0  0
  8 56  1  0  0  0  0
  9 10  1  0  0  0  0
  9 57  1  0  0  0  0
  9 58  1  0  0  0  0
 10 11  1  0  0  0  0
 10 13  1  0  0  0  0
 10 95  1  1  0  0  0
 11 12  1  0  0  0  0
 11 59  1  0  0  0  0
 11 60  1  0  0  0  0
 12 61  1  0  0  0  0
 12 62  1  0  0  0  0
 13 14  1  0  0  0  0
 13 63  1  0  0  0  0
 13 64  1  0  0  0  0
 14 15  1  0  0  0  0
 14 65  1  0  0  0  0
 14 66  1  0  0  0  0
 15 16  1  0  0  0  0
 15 67  1  0  0  0  0
 15 68  1  0  0  0  0
 16 17  1  0  0  0  0
 16 20  1  0  0  0  0
 17 18  2  0  0  0  0
 17 43  1  0  0  0  0
 18 19  1  0  0  0  0
 18 40  1  0  0  0  0
 19 20  2  0  0  0  0
 19 21  1  0  0  0  0
 21 22  2  0  0  0  0
 21 26  1  0  0  0  0
 22 23  1  0  0  0  0
 22 69  1  0  0  0  0
 23 24  2  0  0  0  0
 23 70  1  0  0  0  0
 24 25  1  0  0  0  0
 24 36  1  0  0  0  0
 25 26  2  0  0  0  0
 25 27  1  0  0  0  0
 26 71  1  0  0  0  0
 27 28  1  0  0  0  0
 28 29  1  0  0  0  0
 28 72  1  0  0  0  0
 28 73  1  0  0  0  0
 29 30  1  0  0  0  0
 29 74  1  0  0  0  0
 29 75  1  0  0  0  0
 30 31  1  0  0  0  0
 30 35  1  0  0  0  0
 30 96  1  0  0  0  0
 31 32  1  0  0  0  0
 31 76  1  0  0  0  0
 31 77  1  0  0  0  0
 32 33  1  0  0  0  0
 32 78  1  0  0  0  0
 32 79  1  0  0  0  0
 33 34  1  0  0  0  0
 33 80  1  0  0  0  0
 33 81  1  0  0  0  0
 34 35  1  0  0  0  0
 34 82  1  0  0  0  0
 34 83  1  0  0  0  0
 35 84  1  0  0  0  0
 35 85  1  0  0  0  0
 36 37  1  0  0  0  0
 36 38  1  0  0  0  0
 36 39  1  0  0  0  0
 40 41  1  0  0  0  0
 40 86  1  0  0  0  0
 40 87  1  0  0  0  0
 41 42  1  0  0  0  0
 41 44  1  0  0  0  0
 42 43  1  0  0  0  0
 42 88  1  0  0  0  0
 42 89  1  0  0  0  0
 43 90  1  0  0  0  0
 43 91  1  0  0  0  0
 44 45  2  0  0  0  0
 44 46  2  0  0  0  0
 44 47  1  0  0  0  0
 47 92  1  0  0  0  0
 47 93  1  0  0  0  0
 47 94  1  0  0  0  0
M  CHG  2  10   1  30   1
M  END
$$$$
