CatS_160
 OpenBabel05281909343D

 98102  0  0  1  0  0  0  0  0999 V2000
   -0.1342   16.2940   -5.9150 C   0  0  2  0  0  0  0  0  0  0  0  0
   -0.8232   16.4891   -7.2588 C   0  0  0  0  0  0  0  0  0  0  0  0
   -1.2900   15.1471   -7.8189 C   0  0  0  0  0  0  0  0  0  0  0  0
   -2.1669   14.4291   -6.8691 N   0  3  2  0  0  0  0  0  0  0  0  0
   -1.4720   14.2179   -5.5960 C   0  0  0  0  0  0  0  0  0  0  0  0
   -1.0460   15.5359   -4.9660 C   0  0  0  0  0  0  0  0  0  0  0  0
   -2.5801   13.1269   -7.4201 C   0  0  0  0  0  0  0  0  0  0  0  0
   -3.1241   13.0260   -8.8681 C   0  0  1  0  0  0  0  0  0  0  0  0
   -3.2640   11.5090   -9.1209 C   0  0  0  0  0  0  0  0  0  0  0  0
   -4.2419   10.5141   -8.6601 N   0  0  0  0  0  0  0  0  0  0  0  0
   -5.4820   10.2819   -9.1501 C   0  0  0  0  0  0  0  0  0  0  0  0
   -6.1812    9.4200   -8.4169 C   0  0  0  0  0  0  0  0  0  0  0  0
   -5.3050    9.1151   -7.3480 C   0  0  0  0  0  0  0  0  0  0  0  0
   -4.1750    9.7759   -7.5250 N   0  0  0  0  0  0  0  0  0  0  0  0
   -5.5560    8.2630   -6.1939 C   0  0  0  0  0  0  0  0  0  0  0  0
   -4.5302    7.4890   -5.6949 C   0  0  0  0  0  0  0  0  0  0  0  0
   -4.7351    6.6810   -4.6050 C   0  0  0  0  0  0  0  0  0  0  0  0
   -5.9571    6.5960   -3.9660 C   0  0  0  0  0  0  0  0  0  0  0  0
   -6.9943    7.3881   -4.4571 C   0  0  0  0  0  0  0  0  0  0  0  0
   -6.7800    8.1990   -5.5519 C   0  0  0  0  0  0  0  0  0  0  0  0
   -8.6630    7.4820   -3.7700 S   0  0  0  0  0  0  0  0  0  0  0  0
   -9.3310    9.0540   -3.1619 C   0  0  0  0  0  0  0  0  0  0  0  0
   -8.2219   10.0751   -2.8261 C   0  0  0  0  0  0  0  0  0  0  0  0
   -8.5760   11.1031   -1.8209 N   0  3  2  0  0  0  0  0  0  0  0  0
   -9.9618   11.5500   -1.9600 C   0  0  0  0  0  0  0  0  0  0  0  0
  -10.3210   12.5461   -0.8610 C   0  0  0  0  0  0  0  0  0  0  0  0
   -9.3939   13.7531   -0.8590 C   0  0  0  0  0  0  0  0  0  0  0  0
   -7.9501   13.2839   -0.8649 C   0  0  0  0  0  0  0  0  0  0  0  0
   -7.6879   12.2570   -1.9580 C   0  0  0  0  0  0  0  0  0  0  0  0
   -7.6270   12.7482    0.3769 F   0  0  0  0  0  0  0  0  0  0  0  0
   -7.1229   14.3871   -1.0520 F   0  0  0  0  0  0  0  0  0  0  0  0
   -5.9110    5.6178   -2.7931 C   0  0  0  0  0  0  0  0  0  0  0  0
   -7.0479    4.8450   -2.6560 F   0  0  0  0  0  0  0  0  0  0  0  0
   -5.7070    6.2890   -1.5909 F   0  0  0  0  0  0  0  0  0  0  0  0
   -4.8840    4.6871   -2.9151 F   0  0  0  0  0  0  0  0  0  0  0  0
   -7.6091    9.0310   -8.7911 C   0  0  0  0  0  0  0  0  0  0  0  0
   -8.1021    9.5490  -10.0910 N   0  0  0  0  0  0  0  0  0  0  0  0
   -7.6020   10.9238  -10.2949 C   0  0  0  0  0  0  0  0  0  0  0  0
   -6.0628   10.9440  -10.3819 C   0  0  0  0  0  0  0  0  0  0  0  0
   -9.6480    9.2099  -10.4700 S   0  0  0  0  0  0  0  0  0  0  0  0
   -9.6799    9.4660  -11.8731 O   0  0  0  0  0  0  0  0  0  0  0  0
   -9.7610    7.8149  -10.1930 O   0  0  0  0  0  0  0  0  0  0  0  0
  -11.2730    9.8120   -9.9541 C   0  0  0  0  0  0  0  0  0  0  0  0
   -4.3941   13.6859   -8.9950 O   0  0  0  0  0  0  0  0  0  0  0  0
   -0.0020   17.3951   -5.4590 C   0  0  0  0  0  0  0  0  0  0  0  0
    0.7783   17.4911   -4.5530 C   0  0  0  0  0  0  0  0  0  0  0  0
   -1.0030   17.8427   -4.9720 C   0  0  0  0  0  0  0  0  0  0  0  0
    0.1257   18.3094   -6.2284 C   0  0  0  0  0  0  0  0  0  0  0  0
   -2.3399   13.5120   -9.6369 H   0  0  0  0  0  0  0  0  0  0  0  0
   -0.0230   16.9621   -8.0168 H   0  0  0  0  0  0  0  0  0  0  0  0
   -1.7601   17.2320   -7.1890 H   0  0  0  0  0  0  0  0  0  0  0  0
   -0.3071   14.5310   -8.1251 H   0  0  0  0  0  0  0  0  0  0  0  0
   -1.9180   15.3600   -8.8180 H   0  0  0  0  0  0  0  0  0  0  0  0
   -0.5079   13.5350   -5.8191 H   0  0  0  0  0  0  0  0  0  0  0  0
   -2.1650   13.6380   -4.8070 H   0  0  0  0  0  0  0  0  0  0  0  0
   -2.0181   16.1969   -4.7169 H   0  0  0  0  0  0  0  0  0  0  0  0
   -0.5130   15.2530   -3.9301 H   0  0  0  0  0  0  0  0  0  0  0  0
   -1.6790   12.3470   -7.2932 H   0  0  0  0  0  0  0  0  0  0  0  0
   -3.4670   12.7580   -6.6999 H   0  0  0  0  0  0  0  0  0  0  0  0
   -2.2441   11.0569   -8.6779 H   0  0  0  0  0  0  0  0  0  0  0  0
   -3.2469   11.3531  -10.3110 H   0  0  0  0  0  0  0  0  0  0  0  0
   -3.6280    7.5170   -6.1270 H   0  0  0  0  0  0  0  0  0  0  0  0
   -3.9709    6.1360   -4.2648 H   0  0  0  0  0  0  0  0  0  0  0  0
   -7.5340    8.7609   -5.8898 H   0  0  0  0  0  0  0  0  0  0  0  0
  -10.0140    8.8492   -2.1950 H   0  0  0  0  0  0  0  0  0  0  0  0
   -9.9371    9.5709   -4.0569 H   0  0  0  0  0  0  0  0  0  0  0  0
   -7.2731    9.4750   -2.4009 H   0  0  0  0  0  0  0  0  0  0  0  0
   -7.8928   10.5919   -3.8589 H   0  0  0  0  0  0  0  0  0  0  0  0
  -10.7040   10.6140   -1.8572 H   0  0  0  0  0  0  0  0  0  0  0  0
  -10.1000   12.0339   -3.0490 H   0  0  0  0  0  0  0  0  0  0  0  0
  -10.2480   12.0270    0.2198 H   0  0  0  0  0  0  0  0  0  0  0  0
  -11.4460   12.9319   -1.0201 H   0  0  0  0  0  0  0  0  0  0  0  0
   -9.6092   14.4330   -1.8230 H   0  0  0  0  0  0  0  0  0  0  0  0
   -9.5878   14.3971    0.1340 H   0  0  0  0  0  0  0  0  0  0  0  0
   -6.5440   11.8981   -1.9201 H   0  0  0  0  0  0  0  0  0  0  0  0
   -7.8700   12.7941   -3.0161 H   0  0  0  0  0  0  0  0  0  0  0  0
   -8.3370    9.4322   -7.9289 H   0  0  0  0  0  0  0  0  0  0  0  0
   -7.6839    7.8372   -8.8309 H   0  0  0  0  0  0  0  0  0  0  0  0
   -7.9650   11.6280   -9.3961 H   0  0  0  0  0  0  0  0  0  0  0  0
   -8.0209   11.3601  -11.3291 H   0  0  0  0  0  0  0  0  0  0  0  0
   -5.6991   12.0839  -10.4540 H   0  0  0  0  0  0  0  0  0  0  0  0
   -5.7071   10.3492  -11.3600 H   0  0  0  0  0  0  0  0  0  0  0  0
  -11.4341    9.5610   -8.7920 H   0  0  0  0  0  0  0  0  0  0  0  0
  -11.3349   10.9991  -10.1199 H   0  0  0  0  0  0  0  0  0  0  0  0
  -12.1250    9.2700  -10.6011 H   0  0  0  0  0  0  0  0  0  0  0  0
   -4.3182   14.6690   -8.7981 H   0  0  0  0  0  0  0  0  0  0  0  0
   -2.9095   14.9385   -6.7194 H   0  0  0  0  0  0  0  0  0  0  0  0
   -8.4738   10.7391   -0.9906 H   0  0  0  0  0  0  0  0  0  0  0  0
    0.8807   15.6795   -6.1104 H   0  0  0  0  0  0  0  0  0  0  0  0
    1.8971   17.3399   -4.9738 H   0  0  0  0  0  0  0  0  0  0  0  0
    0.7690   16.6867   -3.6631 H   0  0  0  0  0  0  0  0  0  0  0  0
    0.8910   18.5258   -3.9384 H   0  0  0  0  0  0  0  0  0  0  0  0
   -2.0834   17.9192   -5.5036 H   0  0  0  0  0  0  0  0  0  0  0  0
   -1.1995   17.5727   -3.8050 H   0  0  0  0  0  0  0  0  0  0  0  0
   -1.0214   19.0168   -4.6651 H   0  0  0  0  0  0  0  0  0  0  0  0
    1.0966   18.1076   -6.9144 H   0  0  0  0  0  0  0  0  0  0  0  0
   -0.7120   18.8048   -6.9432 H   0  0  0  0  0  0  0  0  0  0  0  0
    0.5898   19.3395   -5.7954 H   0  0  0  0  0  0  0  0  0  0  0  0
  1  2  1  0  0  0  0
  1  6  1  0  0  0  0
  1 45  1  0  0  0  0
  1 89  1  6  0  0  0
  2  3  1  0  0  0  0
  2 50  1  0  0  0  0
  2 51  1  0  0  0  0
  3  4  1  0  0  0  0
  3 52  1  0  0  0  0
  3 53  1  0  0  0  0
  4  5  1  0  0  0  0
  4  7  1  0  0  0  0
  4 87  1  1  0  0  0
  5  6  1  0  0  0  0
  5 54  1  0  0  0  0
  5 55  1  0  0  0  0
  6 56  1  0  0  0  0
  6 57  1  0  0  0  0
  7  8  1  0  0  0  0
  7 58  1  0  0  0  0
  7 59  1  0  0  0  0
  8  9  1  0  0  0  0
  8 44  1  0  0  0  0
  8 49  1  6  0  0  0
  9 10  1  0  0  0  0
  9 60  1  0  0  0  0
  9 61  1  0  0  0  0
 10 11  1  0  0  0  0
 10 14  1  0  0  0  0
 11 12  2  0  0  0  0
 11 39  1  0  0  0  0
 12 13  1  0  0  0  0
 12 36  1  0  0  0  0
 13 14  2  0  0  0  0
 13 15  1  0  0  0  0
 15 16  2  0  0  0  0
 15 20  1  0  0  0  0
 16 17  1  0  0  0  0
 16 62  1  0  0  0  0
 17 18  2  0  0  0  0
 17 63  1  0  0  0  0
 18 19  1  0  0  0  0
 18 32  1  0  0  0  0
 19 20  2  0  0  0  0
 19 21  1  0  0  0  0
 20 64  1  0  0  0  0
 21 22  1  0  0  0  0
 22 23  1  0  0  0  0
 22 65  1  0  0  0  0
 22 66  1  0  0  0  0
 23 24  1  0  0  0  0
 23 67  1  0  0  0  0
 23 68  1  0  0  0  0
 24 25  1  0  0  0  0
 24 29  1  0  0  0  0
 24 88  1  1  0  0  0
 25 26  1  0  0  0  0
 25 69  1  0  0  0  0
 25 70  1  0  0  0  0
 26 27  1  0  0  0  0
 26 71  1  0  0  0  0
 26 72  1  0  0  0  0
 27 28  1  0  0  0  0
 27 73  1  0  0  0  0
 27 74  1  0  0  0  0
 28 29  1  0  0  0  0
 28 30  1  0  0  0  0
 28 31  1  0  0  0  0
 29 75  1  0  0  0  0
 29 76  1  0  0  0  0
 32 33  1  0  0  0  0
 32 34  1  0  0  0  0
 32 35  1  0  0  0  0
 36 37  1  0  0  0  0
 36 77  1  0  0  0  0
 36 78  1  0  0  0  0
 37 38  1  0  0  0  0
 37 40  1  0  0  0  0
 38 39  1  0  0  0  0
 38 79  1  0  0  0  0
 38 80  1  0  0  0  0
 39 81  1  0  0  0  0
 39 82  1  0  0  0  0
 40 41  2  0  0  0  0
 40 42  2  0  0  0  0
 40 43  1  0  0  0  0
 43 83  1  0  0  0  0
 43 84  1  0  0  0  0
 43 85  1  0  0  0  0
 44 86  1  0  0  0  0
 45 46  1  0  0  0  0
 45 47  1  0  0  0  0
 45 48  1  0  0  0  0
 46 90  1  0  0  0  0
 46 91  1  0  0  0  0
 46 92  1  0  0  0  0
 47 93  1  0  0  0  0
 47 94  1  0  0  0  0
 47 95  1  0  0  0  0
 48 96  1  0  0  0  0
 48 97  1  0  0  0  0
 48 98  1  0  0  0  0
M  CHG  2   4   1  24   1
M  END
$$$$
