CatS_184
 OpenBabel05281909343D

 95 99  0  0  1  0  0  0  0  0999 V2000
   -9.3130   13.6159   -0.9780 C   0  0  1  0  0  0  0  0  0  0  0  0
   -7.8909   13.0830   -0.9750 C   0  0  0  0  0  0  0  0  0  0  0  0
   -7.6840   12.0019   -2.0259 C   0  0  0  0  0  0  0  0  0  0  0  0
   -8.6210   10.8950   -1.8360 N   0  3  1  0  0  0  0  0  0  0  0  0
   -9.9870   11.3970   -1.9840 C   0  0  0  0  0  0  0  0  0  0  0  0
  -10.2920   12.4521   -0.9239 C   0  0  0  0  0  0  0  0  0  0  0  0
   -8.3719    9.8090   -2.8120 C   0  0  0  0  0  0  0  0  0  0  0  0
   -9.4880    8.8000   -3.1770 C   0  0  0  0  0  0  0  0  0  0  0  0
   -8.5650    7.3150   -3.6840 S   0  0  0  0  0  0  0  0  0  0  0  0
   -6.9100    7.4770   -4.3940 C   0  0  0  0  0  0  0  0  0  0  0  0
   -6.7381    8.2809   -5.5031 C   0  0  0  0  0  0  0  0  0  0  0  0
   -5.5170    8.3460   -6.1690 C   0  0  0  0  0  0  0  0  0  0  0  0
   -4.4809    7.5701   -5.6799 C   0  0  0  0  0  0  0  0  0  0  0  0
   -4.6409    6.7929   -4.5619 C   0  0  0  0  0  0  0  0  0  0  0  0
   -5.8429    6.7390   -3.8889 C   0  0  0  0  0  0  0  0  0  0  0  0
   -5.8460    5.8240   -2.6609 C   0  0  0  0  0  0  0  0  0  0  0  0
   -7.0401    5.1280   -2.5140 F   0  0  0  0  0  0  0  0  0  0  0  0
   -5.6640    6.5240   -1.4690 F   0  0  0  0  0  0  0  0  0  0  0  0
   -4.8229    4.8860   -2.7361 F   0  0  0  0  0  0  0  0  0  0  0  0
   -5.3259    9.1921   -7.3410 C   0  0  0  0  0  0  0  0  0  0  0  0
   -6.2170    9.4950   -8.4120 C   0  0  0  0  0  0  0  0  0  0  0  0
   -5.4950   10.3039   -9.1871 C   0  0  0  0  0  0  0  0  0  0  0  0
   -4.2530   10.5370   -8.7059 N   0  0  0  0  0  0  0  0  0  0  0  0
   -4.1919    9.8339   -7.5540 N   0  0  0  0  0  0  0  0  0  0  0  0
   -3.1970   11.4170   -9.2429 C   0  0  0  0  0  0  0  0  0  0  0  0
   -3.1080   12.8811   -8.7670 C   0  0  2  0  0  0  0  0  0  0  0  0
   -2.6012   12.9100   -7.3039 C   0  0  0  0  0  0  0  0  0  0  0  0
   -2.1100   14.2229   -6.8311 N   0  3  0  0  0  0  0  0  0  0  0  0
   -1.1789   14.8031   -7.8140 C   0  0  0  0  0  0  0  0  0  0  0  0
   -0.7930   16.2410   -7.4111 C   0  0  0  0  0  0  0  0  0  0  0  0
   -0.2259   16.3490   -5.9719 C   0  0  0  0  0  0  0  0  0  0  0  0
   -1.0421   15.4830   -4.9740 C   0  0  0  0  0  0  0  0  0  0  0  0
   -1.4459   14.0970   -5.5231 C   0  0  0  0  0  0  0  0  0  0  0  0
    1.2640   15.9650   -5.9590 C   0  0  0  0  0  0  0  0  0  0  0  0
   -0.3151   17.8319   -5.5480 C   0  0  0  0  0  0  0  0  0  0  0  0
   -4.4000   13.5001   -8.8310 O   0  0  0  0  0  0  0  0  0  0  0  0
   -6.0391   10.9019  -10.4651 C   0  0  0  0  0  0  0  0  0  0  0  0
   -7.5811   10.9049  -10.4300 C   0  0  0  0  0  0  0  0  0  0  0  0
   -8.1200    9.5691  -10.1280 N   0  0  0  0  0  0  0  0  0  0  0  0
   -7.6690    9.1480   -8.7730 C   0  0  0  0  0  0  0  0  0  0  0  0
   -9.7001    9.4120  -10.5200 S   0  0  0  0  0  0  0  0  0  0  0  0
   -9.9520    8.0259  -10.2969 O   0  0  0  0  0  0  0  0  0  0  0  0
   -9.6781    9.7130  -11.9150 O   0  0  0  0  0  0  0  0  0  0  0  0
  -11.2709   10.1641  -10.0210 C   0  0  0  0  0  0  0  0  0  0  0  0
   -9.5020   14.3070   -0.0201 C   0  0  0  0  0  0  0  0  0  0  0  0
   -9.5970   14.4461   -2.2410 H   0  0  0  0  0  0  0  0  0  0  0  0
   -2.3331   13.4769   -9.4641 H   0  0  0  0  0  0  0  0  0  0  0  0
   -7.1319   13.9869   -1.1890 H   0  0  0  0  0  0  0  0  0  0  0  0
   -7.6449   12.6350    0.1139 H   0  0  0  0  0  0  0  0  0  0  0  0
   -7.8932   12.5042   -3.0930 H   0  0  0  0  0  0  0  0  0  0  0  0
   -6.5451   11.6289   -1.9449 H   0  0  0  0  0  0  0  0  0  0  0  0
  -10.7290   10.4591   -1.9000 H   0  0  0  0  0  0  0  0  0  0  0  0
  -10.1610   11.8831   -3.0671 H   0  0  0  0  0  0  0  0  0  0  0  0
  -11.3849   12.9119   -1.1320 H   0  0  0  0  0  0  0  0  0  0  0  0
  -10.2429   11.9521    0.1692 H   0  0  0  0  0  0  0  0  0  0  0  0
   -8.1080   10.3270   -3.8642 H   0  0  0  0  0  0  0  0  0  0  0  0
   -7.4140    9.1769   -2.4628 H   0  0  0  0  0  0  0  0  0  0  0  0
  -10.1800    8.5310   -2.2341 H   0  0  0  0  0  0  0  0  0  0  0  0
  -10.1569    9.2300   -4.0749 H   0  0  0  0  0  0  0  0  0  0  0  0
   -7.5109    8.8150   -5.8479 H   0  0  0  0  0  0  0  0  0  0  0  0
   -3.5969    7.5780   -6.1430 H   0  0  0  0  0  0  0  0  0  0  0  0
   -3.8671    6.2520   -4.2319 H   0  0  0  0  0  0  0  0  0  0  0  0
   -2.1420   10.8940   -8.9969 H   0  0  0  0  0  0  0  0  0  0  0  0
   -3.3480   11.4211  -10.4370 H   0  0  0  0  0  0  0  0  0  0  0  0
   -3.4729   12.5370   -6.5720 H   0  0  0  0  0  0  0  0  0  0  0  0
   -1.6929   12.1310   -7.2130 H   0  0  0  0  0  0  0  0  0  0  0  0
   -0.2040   14.1149   -7.8829 H   0  0  0  0  0  0  0  0  0  0  0  0
   -1.6790   14.8460   -8.9049 H   0  0  0  0  0  0  0  0  0  0  0  0
   -1.7921   16.8949   -7.4840 H   0  0  0  0  0  0  0  0  0  0  0  0
   -0.0090   16.6811   -8.2011 H   0  0  0  0  0  0  0  0  0  0  0  0
   -2.0600   16.0550   -4.6929 H   0  0  0  0  0  0  0  0  0  0  0  0
   -0.4120   15.3249   -3.9650 H   0  0  0  0  0  0  0  0  0  0  0  0
   -0.4751   13.4030   -5.6279 H   0  0  0  0  0  0  0  0  0  0  0  0
   -2.2010   13.6000   -4.7341 H   0  0  0  0  0  0  0  0  0  0  0  0
    1.8611   16.7020   -6.6881 H   0  0  0  0  0  0  0  0  0  0  0  0
    1.4371   14.8410   -6.3320 H   0  0  0  0  0  0  0  0  0  0  0  0
    1.7139   16.0879   -4.8541 H   0  0  0  0  0  0  0  0  0  0  0  0
    0.2790   18.5019   -6.3521 H   0  0  0  0  0  0  0  0  0  0  0  0
    0.1830   17.9589   -4.4669 H   0  0  0  0  0  0  0  0  0  0  0  0
   -1.4621   18.1819   -5.5240 H   0  0  0  0  0  0  0  0  0  0  0  0
   -4.7331   13.5389   -9.7800 H   0  0  0  0  0  0  0  0  0  0  0  0
   -5.6771   10.2310  -11.3910 H   0  0  0  0  0  0  0  0  0  0  0  0
   -5.6339   12.0220  -10.6050 H   0  0  0  0  0  0  0  0  0  0  0  0
   -7.9751   11.2630  -11.5030 H   0  0  0  0  0  0  0  0  0  0  0  0
   -7.9638   11.6829   -9.5999 H   0  0  0  0  0  0  0  0  0  0  0  0
   -8.3820    9.6720   -7.9630 H   0  0  0  0  0  0  0  0  0  0  0  0
   -7.8331    7.9640   -8.7270 H   0  0  0  0  0  0  0  0  0  0  0  0
  -11.4820    9.9381   -8.8620 H   0  0  0  0  0  0  0  0  0  0  0  0
  -11.2150   11.3502  -10.1951 H   0  0  0  0  0  0  0  0  0  0  0  0
  -12.1610    9.7090  -10.6870 H   0  0  0  0  0  0  0  0  0  0  0  0
   -8.5214   10.5575   -0.9942 H   0  0  0  0  0  0  0  0  0  0  0  0
   -2.8267   14.7811   -6.7525 H   0  0  0  0  0  0  0  0  0  0  0  0
  -10.6185   14.7506   -0.0308 H   0  0  0  0  0  0  0  0  0  0  0  0
   -9.3218   13.7831    1.0463 H   0  0  0  0  0  0  0  0  0  0  0  0
   -8.7801   15.2654   -0.0815 H   0  0  0  0  0  0  0  0  0  0  0  0
  1  2  1  0  0  0  0
  1  6  1  0  0  0  0
  1 45  1  0  0  0  0
  1 46  1  6  0  0  0
  2  3  1  0  0  0  0
  2 48  1  0  0  0  0
  2 49  1  0  0  0  0
  3  4  1  0  0  0  0
  3 50  1  0  0  0  0
  3 51  1  0  0  0  0
  4  5  1  0  0  0  0
  4  7  1  0  0  0  0
  4 91  1  1  0  0  0
  5  6  1  0  0  0  0
  5 52  1  0  0  0  0
  5 53  1  0  0  0  0
  6 54  1  0  0  0  0
  6 55  1  0  0  0  0
  7  8  1  0  0  0  0
  7 56  1  0  0  0  0
  7 57  1  0  0  0  0
  8  9  1  0  0  0  0
  8 58  1  0  0  0  0
  8 59  1  0  0  0  0
  9 10  1  0  0  0  0
 10 11  2  0  0  0  0
 10 15  1  0  0  0  0
 11 12  1  0  0  0  0
 11 60  1  0  0  0  0
 12 13  2  0  0  0  0
 12 20  1  0  0  0  0
 13 14  1  0  0  0  0
 13 61  1  0  0  0  0
 14 15  2  0  0  0  0
 14 62  1  0  0  0  0
 15 16  1  0  0  0  0
 16 17  1  0  0  0  0
 16 18  1  0  0  0  0
 16 19  1  0  0  0  0
 20 21  1  0  0  0  0
 20 24  2  0  0  0  0
 21 22  2  0  0  0  0
 21 40  1  0  0  0  0
 22 23  1  0  0  0  0
 22 37  1  0  0  0  0
 23 24  1  0  0  0  0
 23 25  1  0  0  0  0
 25 26  1  0  0  0  0
 25 63  1  0  0  0  0
 25 64  1  0  0  0  0
 26 27  1  0  0  0  0
 26 36  1  0  0  0  0
 26 47  1  6  0  0  0
 27 28  1  0  0  0  0
 27 65  1  0  0  0  0
 27 66  1  0  0  0  0
 28 29  1  0  0  0  0
 28 33  1  0  0  0  0
 28 92  1  0  0  0  0
 29 30  1  0  0  0  0
 29 67  1  0  0  0  0
 29 68  1  0  0  0  0
 30 31  1  0  0  0  0
 30 69  1  0  0  0  0
 30 70  1  0  0  0  0
 31 32  1  0  0  0  0
 31 34  1  0  0  0  0
 31 35  1  0  0  0  0
 32 33  1  0  0  0  0
 32 71  1  0  0  0  0
 32 72  1  0  0  0  0
 33 73  1  0  0  0  0
 33 74  1  0  0  0  0
 34 75  1  0  0  0  0
 34 76  1  0  0  0  0
 34 77  1  0  0  0  0
 35 78  1  0  0  0  0
 35 79  1  0  0  0  0
 35 80  1  0  0  0  0
 36 81  1  0  0  0  0
 37 38  1  0  0  0  0
 37 82  1  0  0  0  0
 37 83  1  0  0  0  0
 38 39  1  0  0  0  0
 38 84  1  0  0  0  0
 38 85  1  0  0  0  0
 39 40  1  0  0  0  0
 39 41  1  0  0  0  0
 40 86  1  0  0  0  0
 40 87  1  0  0  0  0
 41 42  2  0  0  0  0
 41 43  2  0  0  0  0
 41 44  1  0  0  0  0
 44 88  1  0  0  0  0
 44 89  1  0  0  0  0
 44 90  1  0  0  0  0
 45 93  1  0  0  0  0
 45 94  1  0  0  0  0
 45 95  1  0  0  0  0
M  CHG  2   4   1  28   1
M  END
$$$$
