CatS_186
 OpenBabel05281909343D

 93 97  0  0  1  0  0  0  0  0999 V2000
    1.3339   16.0009   -5.8728 O   0  0  0  0  0  0  0  0  0  0  0  0
   -0.0729   16.6141   -5.7498 C   0  0  2  0  0  0  0  0  0  0  0  0
   -0.9227   15.7401   -4.8439 C   0  0  0  0  0  0  0  0  0  0  0  0
   -1.1369   14.3781   -5.4879 C   0  0  0  0  0  0  0  0  0  0  0  0
   -1.7890   14.4969   -6.7952 N   0  3  1  0  0  0  0  0  0  0  0  0
   -0.9682   15.3259   -7.7038 C   0  0  0  0  0  0  0  0  0  0  0  0
   -0.7129   16.7181   -7.1279 C   0  0  0  0  0  0  0  0  0  0  0  0
   -2.0428   13.1668   -7.4038 C   0  0  0  0  0  0  0  0  0  0  0  0
   -3.3093   13.0530   -8.2949 C   0  0  1  0  0  0  0  0  0  0  0  0
   -3.4941   11.6570   -8.9742 C   0  0  0  0  0  0  0  0  0  0  0  0
   -4.3588   10.4681   -8.7431 N   0  0  0  0  0  0  0  0  0  0  0  0
   -5.5841   10.1769   -9.2681 C   0  0  0  0  0  0  0  0  0  0  0  0
   -6.2740    9.2901   -8.5490 C   0  0  0  0  0  0  0  0  0  0  0  0
   -5.4101    8.9539   -7.4850 C   0  0  0  0  0  0  0  0  0  0  0  0
   -4.2990    9.6549   -7.6450 N   0  0  0  0  0  0  0  0  0  0  0  0
   -5.6732    8.0782   -6.3410 C   0  0  0  0  0  0  0  0  0  0  0  0
   -4.6270    7.3004   -5.8859 C   0  0  0  0  0  0  0  0  0  0  0  0
   -4.7569    6.5309   -4.7570 C   0  0  0  0  0  0  0  0  0  0  0  0
   -5.9250    6.5021   -4.0210 C   0  0  0  0  0  0  0  0  0  0  0  0
   -7.0081    7.2398   -4.4828 C   0  0  0  0  0  0  0  0  0  0  0  0
   -6.8689    7.9988   -5.6309 C   0  0  0  0  0  0  0  0  0  0  0  0
   -8.6061    7.3358   -3.6276 S   0  0  0  0  0  0  0  0  0  0  0  0
   -9.4421    8.9122   -3.1979 C   0  0  0  0  0  0  0  0  0  0  0  0
   -8.3442    9.9560   -2.8599 C   0  0  0  0  0  0  0  0  0  0  0  0
   -8.6160   11.0732   -1.9191 N   0  3  2  0  0  0  0  0  0  0  0  0
  -10.0010   11.5208   -2.0632 C   0  0  0  0  0  0  0  0  0  0  0  0
  -10.3278   12.6040   -1.0380 C   0  0  0  0  0  0  0  0  0  0  0  0
   -9.3920   13.7980   -1.1518 C   0  0  2  0  0  0  0  0  0  0  0  0
   -7.9522   13.3159   -1.1532 C   0  0  0  0  0  0  0  0  0  0  0  0
   -7.7231   12.2042   -2.1670 C   0  0  0  0  0  0  0  0  0  0  0  0
   -5.8591    5.6670   -2.7468 C   0  0  0  0  0  0  0  0  0  0  0  0
   -7.0139    4.9252   -2.5169 F   0  0  0  0  0  0  0  0  0  0  0  0
   -5.6489    6.4550   -1.6219 F   0  0  0  0  0  0  0  0  0  0  0  0
   -4.8280    4.7409   -2.8282 F   0  0  0  0  0  0  0  0  0  0  0  0
   -7.6889    8.8532   -8.8999 C   0  0  0  0  0  0  0  0  0  0  0  0
   -8.3881    9.7010   -9.8888 N   0  0  0  0  0  0  0  0  0  0  0  0
   -7.4590   10.0388  -10.9910 C   0  0  0  0  0  0  0  0  0  0  0  0
   -6.2002   10.8080  -10.5069 C   0  0  0  0  0  0  0  0  0  0  0  0
   -9.9431    9.2750  -10.1870 S   0  0  0  0  0  0  0  0  0  0  0  0
   -9.9670    7.8831   -9.8719 O   0  0  0  0  0  0  0  0  0  0  0  0
  -10.1031    9.4900  -11.5879 O   0  0  0  0  0  0  0  0  0  0  0  0
  -11.5721    9.7759   -9.5750 C   0  0  0  0  0  0  0  0  0  0  0  0
    0.1060   18.0262   -5.1611 C   0  0  0  0  0  0  0  0  0  0  0  0
   -9.5811   14.5221   -0.2141 C   0  0  0  0  0  0  0  0  0  0  0  0
   -4.2389   13.1650   -7.5462 O   0  0  0  0  0  0  0  0  0  0  0  0
   -3.4289   14.1698   -9.1869 H   0  0  0  0  0  0  0  0  0  0  0  0
   -9.6721   14.4922   -2.3299 H   0  0  0  0  0  0  0  0  0  0  0  0
   -1.9700   16.2880   -4.6292 H   0  0  0  0  0  0  0  0  0  0  0  0
   -0.3639   15.6001   -3.7911 H   0  0  0  0  0  0  0  0  0  0  0  0
   -0.0642   13.8450   -5.4829 H   0  0  0  0  0  0  0  0  0  0  0  0
   -1.8560   13.7671   -4.7461 H   0  0  0  0  0  0  0  0  0  0  0  0
    0.0863   14.7889   -7.9054 H   0  0  0  0  0  0  0  0  0  0  0  0
   -1.5380   15.4580   -8.7511 H   0  0  0  0  0  0  0  0  0  0  0  0
   -1.7709   17.2780   -7.0539 H   0  0  0  0  0  0  0  0  0  0  0  0
   -0.0079   17.3400   -7.8758 H   0  0  0  0  0  0  0  0  0  0  0  0
   -1.1191   12.8882   -8.1171 H   0  0  0  0  0  0  0  0  0  0  0  0
   -2.1011   12.3481   -6.5281 H   0  0  0  0  0  0  0  0  0  0  0  0
   -3.6390   11.9000  -10.1399 H   0  0  0  0  0  0  0  0  0  0  0  0
   -2.3970   11.1730   -8.8922 H   0  0  0  0  0  0  0  0  0  0  0  0
   -3.7551    7.3127   -6.3770 H   0  0  0  0  0  0  0  0  0  0  0  0
   -3.9722    5.9941   -4.4509 H   0  0  0  0  0  0  0  0  0  0  0  0
   -7.6539    8.5291   -5.9440 H   0  0  0  0  0  0  0  0  0  0  0  0
  -10.1221    8.7890   -2.2208 H   0  0  0  0  0  0  0  0  0  0  0  0
  -10.1122    9.2961   -4.1158 H   0  0  0  0  0  0  0  0  0  0  0  0
   -7.3821    9.3488   -2.4769 H   0  0  0  0  0  0  0  0  0  0  0  0
   -8.0590   10.4590   -3.9130 H   0  0  0  0  0  0  0  0  0  0  0  0
  -10.6991   10.5538   -1.9231 H   0  0  0  0  0  0  0  0  0  0  0  0
  -10.1969   11.9492   -3.1671 H   0  0  0  0  0  0  0  0  0  0  0  0
  -11.4381   13.0202   -1.2281 H   0  0  0  0  0  0  0  0  0  0  0  0
  -10.2711   12.1600    0.0760 H   0  0  0  0  0  0  0  0  0  0  0  0
   -7.6898   12.9481   -0.0399 H   0  0  0  0  0  0  0  0  0  0  0  0
   -7.2300   14.2411   -1.4129 H   0  0  0  0  0  0  0  0  0  0  0  0
   -7.9248   12.6460   -3.2641 H   0  0  0  0  0  0  0  0  0  0  0  0
   -6.5719   11.8760   -2.0897 H   0  0  0  0  0  0  0  0  0  0  0  0
   -8.3719    8.9081   -7.9169 H   0  0  0  0  0  0  0  0  0  0  0  0
   -7.6539    7.7251   -9.3070 H   0  0  0  0  0  0  0  0  0  0  0  0
   -7.1280    9.0280  -11.5449 H   0  0  0  0  0  0  0  0  0  0  0  0
   -8.0409   10.7379  -11.7743 H   0  0  0  0  0  0  0  0  0  0  0  0
   -5.3911   10.8440  -11.3930 H   0  0  0  0  0  0  0  0  0  0  0  0
   -6.5253   11.9298  -10.2322 H   0  0  0  0  0  0  0  0  0  0  0  0
  -11.7833   10.9188   -9.8741 H   0  0  0  0  0  0  0  0  0  0  0  0
  -11.6087    9.6610   -8.3809 H   0  0  0  0  0  0  0  0  0  0  0  0
  -12.4131    9.0751  -10.0659 H   0  0  0  0  0  0  0  0  0  0  0  0
   -0.9659   18.5278   -4.9667 H   0  0  0  0  0  0  0  0  0  0  0  0
    0.7303   18.7017   -5.9332 H   0  0  0  0  0  0  0  0  0  0  0  0
    0.7100   17.9571   -4.1260 H   0  0  0  0  0  0  0  0  0  0  0  0
    1.9945   16.6841   -5.7360 H   0  0  0  0  0  0  0  0  0  0  0  0
  -10.6432   14.6412   -0.0597 H   0  0  0  0  0  0  0  0  0  0  0  0
   -9.1350   14.0902    0.6696 H   0  0  0  0  0  0  0  0  0  0  0  0
   -9.1350   15.4863   -0.4081 H   0  0  0  0  0  0  0  0  0  0  0  0
   -2.5939   14.9080   -6.6692 H   0  0  0  0  0  0  0  0  0  0  0  0
   -8.4914   10.7730   -1.0663 H   0  0  0  0  0  0  0  0  0  0  0  0
   -5.1144   13.1015   -8.0375 H   0  0  0  0  0  0  0  0  0  0  0  0
  2  1  1  6  0  0  0
  2  3  1  0  0  0  0
  2  7  1  0  0  0  0
  2 43  1  0  0  0  0
  3  4  1  0  0  0  0
  3 48  1  0  0  0  0
  3 49  1  0  0  0  0
  4  5  1  0  0  0  0
  4 50  1  0  0  0  0
  4 51  1  0  0  0  0
  5  6  1  0  0  0  0
  5  8  1  0  0  0  0
  5 91  1  1  0  0  0
  6  7  1  0  0  0  0
  6 52  1  0  0  0  0
  6 53  1  0  0  0  0
  7 54  1  0  0  0  0
  7 55  1  0  0  0  0
  8  9  1  0  0  0  0
  8 56  1  0  0  0  0
  8 57  1  0  0  0  0
  9 10  1  0  0  0  0
  9 45  1  0  0  0  0
  9 46  1  6  0  0  0
 10 11  1  0  0  0  0
 10 58  1  0  0  0  0
 10 59  1  0  0  0  0
 11 12  1  0  0  0  0
 11 15  1  0  0  0  0
 12 13  2  0  0  0  0
 12 38  1  0  0  0  0
 13 14  1  0  0  0  0
 13 35  1  0  0  0  0
 14 15  2  0  0  0  0
 14 16  1  0  0  0  0
 16 17  2  0  0  0  0
 16 21  1  0  0  0  0
 17 18  1  0  0  0  0
 17 60  1  0  0  0  0
 18 19  2  0  0  0  0
 18 61  1  0  0  0  0
 19 20  1  0  0  0  0
 19 31  1  0  0  0  0
 20 21  2  0  0  0  0
 20 22  1  0  0  0  0
 21 62  1  0  0  0  0
 22 23  1  0  0  0  0
 23 24  1  0  0  0  0
 23 63  1  0  0  0  0
 23 64  1  0  0  0  0
 24 25  1  0  0  0  0
 24 65  1  0  0  0  0
 24 66  1  0  0  0  0
 25 26  1  0  0  0  0
 25 30  1  0  0  0  0
 25 92  1  1  0  0  0
 26 27  1  0  0  0  0
 26 67  1  0  0  0  0
 26 68  1  0  0  0  0
 27 28  1  0  0  0  0
 27 69  1  0  0  0  0
 27 70  1  0  0  0  0
 28 29  1  0  0  0  0
 28 44  1  0  0  0  0
 28 47  1  6  0  0  0
 29 30  1  0  0  0  0
 29 71  1  0  0  0  0
 29 72  1  0  0  0  0
 30 73  1  0  0  0  0
 30 74  1  0  0  0  0
 31 32  1  0  0  0  0
 31 33  1  0  0  0  0
 31 34  1  0  0  0  0
 35 36  1  0  0  0  0
 35 75  1  0  0  0  0
 35 76  1  0  0  0  0
 36 37  1  0  0  0  0
 36 39  1  0  0  0  0
 37 38  1  0  0  0  0
 37 77  1  0  0  0  0
 37 78  1  0  0  0  0
 38 79  1  0  0  0  0
 38 80  1  0  0  0  0
 39 40  2  0  0  0  0
 39 41  2  0  0  0  0
 39 42  1  0  0  0  0
 42 81  1  0  0  0  0
 42 82  1  0  0  0  0
 42 83  1  0  0  0  0
 43 84  1  0  0  0  0
 43 85  1  0  0  0  0
 43 86  1  0  0  0  0
 45 93  1  0  0  0  0
 87  1  1  0  0  0  0
 88 44  1  0  0  0  0
 89 44  1  0  0  0  0
 90 44  1  0  0  0  0
M  CHG  2   5   1  25   1
M  END
$$$$
