CatS_157
 OpenBabel05281909343D

 92 96  0  0  1  0  0  0  0  0999 V2000
   -0.1343   16.2940   -5.9151 C   0  0  0  0  0  0  0  0  0  0  0  0
   -0.8232   16.4892   -7.2587 C   0  0  0  0  0  0  0  0  0  0  0  0
   -1.2900   15.1472   -7.8188 C   0  0  0  0  0  0  0  0  0  0  0  0
   -2.1668   14.4292   -6.8692 N   0  3  0  0  0  0  0  0  0  0  0  0
   -1.4720   14.2177   -5.5960 C   0  0  0  0  0  0  0  0  0  0  0  0
   -1.0460   15.5360   -4.9662 C   0  0  0  0  0  0  0  0  0  0  0  0
   -2.5802   13.1268   -7.4201 C   0  0  0  0  0  0  0  0  0  0  0  0
   -3.1242   13.0259   -8.8679 C   0  0  1  0  0  0  0  0  0  0  0  0
   -3.2640   11.5090   -9.1209 C   0  0  0  0  0  0  0  0  0  0  0  0
   -4.2419   10.5141   -8.6600 N   0  0  0  0  0  0  0  0  0  0  0  0
   -5.4820   10.2818   -9.1501 C   0  0  0  0  0  0  0  0  0  0  0  0
   -6.1812    9.4200   -8.4170 C   0  0  0  0  0  0  0  0  0  0  0  0
   -5.3051    9.1152   -7.3480 C   0  0  0  0  0  0  0  0  0  0  0  0
   -4.1750    9.7759   -7.5249 N   0  0  0  0  0  0  0  0  0  0  0  0
   -5.5560    8.2630   -6.1939 C   0  0  0  0  0  0  0  0  0  0  0  0
   -4.5301    7.4889   -5.6949 C   0  0  0  0  0  0  0  0  0  0  0  0
   -4.7351    6.6810   -4.6049 C   0  0  0  0  0  0  0  0  0  0  0  0
   -5.9571    6.5959   -3.9660 C   0  0  0  0  0  0  0  0  0  0  0  0
   -6.9944    7.3881   -4.4570 C   0  0  0  0  0  0  0  0  0  0  0  0
   -6.7801    8.1989   -5.5519 C   0  0  0  0  0  0  0  0  0  0  0  0
   -8.6629    7.4821   -3.7700 S   0  0  0  0  0  0  0  0  0  0  0  0
   -9.3310    9.0540   -3.1618 C   0  0  0  0  0  0  0  0  0  0  0  0
   -8.2221   10.0751   -2.8261 C   0  0  0  0  0  0  0  0  0  0  0  0
   -8.5760   11.1032   -1.8209 N   0  3  2  0  0  0  0  0  0  0  0  0
   -9.9618   11.5500   -1.9600 C   0  0  0  0  0  0  0  0  0  0  0  0
  -10.3210   12.5460   -0.8610 C   0  0  0  0  0  0  0  0  0  0  0  0
   -9.3939   13.7532   -0.8589 C   0  0  0  0  0  0  0  0  0  0  0  0
   -7.9501   13.2839   -0.8650 C   0  0  0  0  0  0  0  0  0  0  0  0
   -7.6879   12.2569   -1.9580 C   0  0  0  0  0  0  0  0  0  0  0  0
   -7.6270   12.7482    0.3768 F   0  0  0  0  0  0  0  0  0  0  0  0
   -7.1229   14.3872   -1.0519 F   0  0  0  0  0  0  0  0  0  0  0  0
   -5.9110    5.6178   -2.7930 C   0  0  0  0  0  0  0  0  0  0  0  0
   -7.0479    4.8450   -2.6560 F   0  0  0  0  0  0  0  0  0  0  0  0
   -5.7070    6.2890   -1.5909 F   0  0  0  0  0  0  0  0  0  0  0  0
   -4.8840    4.6870   -2.9152 F   0  0  0  0  0  0  0  0  0  0  0  0
   -7.6092    9.0309   -8.7911 C   0  0  0  0  0  0  0  0  0  0  0  0
   -8.1021    9.5490  -10.0910 N   0  0  0  0  0  0  0  0  0  0  0  0
   -7.6020   10.9237  -10.2948 C   0  0  0  0  0  0  0  0  0  0  0  0
   -6.0628   10.9440  -10.3819 C   0  0  0  0  0  0  0  0  0  0  0  0
   -9.6481    9.2100  -10.4699 S   0  0  0  0  0  0  0  0  0  0  0  0
   -9.6798    9.4660  -11.8730 O   0  0  0  0  0  0  0  0  0  0  0  0
   -9.7609    7.8149  -10.1931 O   0  0  0  0  0  0  0  0  0  0  0  0
  -11.2729    9.8121   -9.9540 C   0  0  0  0  0  0  0  0  0  0  0  0
   -4.3940   13.6859   -8.9949 O   0  0  0  0  0  0  0  0  0  0  0  0
   -0.0019   17.3952   -5.4591 C   0  0  0  0  0  0  0  0  0  0  0  0
    0.8806   15.6794   -6.1104 C   0  0  0  0  0  0  0  0  0  0  0  0
   -2.3400   13.5120   -9.6370 H   0  0  0  0  0  0  0  0  0  0  0  0
   -0.0230   16.9622   -8.0168 H   0  0  0  0  0  0  0  0  0  0  0  0
   -1.7601   17.2320   -7.1891 H   0  0  0  0  0  0  0  0  0  0  0  0
   -0.3071   14.5309   -8.1252 H   0  0  0  0  0  0  0  0  0  0  0  0
   -1.9180   15.3601   -8.8181 H   0  0  0  0  0  0  0  0  0  0  0  0
   -0.5078   13.5350   -5.8191 H   0  0  0  0  0  0  0  0  0  0  0  0
   -2.1650   13.6380   -4.8071 H   0  0  0  0  0  0  0  0  0  0  0  0
   -2.0183   16.1968   -4.7169 H   0  0  0  0  0  0  0  0  0  0  0  0
   -0.5130   15.2529   -3.9300 H   0  0  0  0  0  0  0  0  0  0  0  0
   -1.6790   12.3470   -7.2932 H   0  0  0  0  0  0  0  0  0  0  0  0
   -3.4669   12.7579   -6.7000 H   0  0  0  0  0  0  0  0  0  0  0  0
   -2.2440   11.0567   -8.6779 H   0  0  0  0  0  0  0  0  0  0  0  0
   -3.2470   11.3532  -10.3111 H   0  0  0  0  0  0  0  0  0  0  0  0
   -3.6278    7.5170   -6.1270 H   0  0  0  0  0  0  0  0  0  0  0  0
   -3.9710    6.1360   -4.2648 H   0  0  0  0  0  0  0  0  0  0  0  0
   -7.5341    8.7609   -5.8898 H   0  0  0  0  0  0  0  0  0  0  0  0
  -10.0140    8.8492   -2.1951 H   0  0  0  0  0  0  0  0  0  0  0  0
   -9.9372    9.5709   -4.0568 H   0  0  0  0  0  0  0  0  0  0  0  0
   -7.2731    9.4748   -2.4010 H   0  0  0  0  0  0  0  0  0  0  0  0
   -7.8926   10.5919   -3.8590 H   0  0  0  0  0  0  0  0  0  0  0  0
  -10.7040   10.6139   -1.8572 H   0  0  0  0  0  0  0  0  0  0  0  0
  -10.1000   12.0339   -3.0491 H   0  0  0  0  0  0  0  0  0  0  0  0
  -10.2478   12.0271    0.2197 H   0  0  0  0  0  0  0  0  0  0  0  0
  -11.4462   12.9321   -1.0200 H   0  0  0  0  0  0  0  0  0  0  0  0
   -9.6093   14.4329   -1.8229 H   0  0  0  0  0  0  0  0  0  0  0  0
   -9.5878   14.3972    0.1342 H   0  0  0  0  0  0  0  0  0  0  0  0
   -6.5440   11.8981   -1.9201 H   0  0  0  0  0  0  0  0  0  0  0  0
   -7.8700   12.7941   -3.0161 H   0  0  0  0  0  0  0  0  0  0  0  0
   -8.3370    9.4322   -7.9289 H   0  0  0  0  0  0  0  0  0  0  0  0
   -7.6839    7.8373   -8.8308 H   0  0  0  0  0  0  0  0  0  0  0  0
   -7.9649   11.6280   -9.3961 H   0  0  0  0  0  0  0  0  0  0  0  0
   -8.0210   11.3601  -11.3291 H   0  0  0  0  0  0  0  0  0  0  0  0
   -5.6991   12.0840  -10.4540 H   0  0  0  0  0  0  0  0  0  0  0  0
   -5.7071   10.3493  -11.3600 H   0  0  0  0  0  0  0  0  0  0  0  0
  -11.4341    9.5610   -8.7921 H   0  0  0  0  0  0  0  0  0  0  0  0
  -11.3348   10.9990  -10.1201 H   0  0  0  0  0  0  0  0  0  0  0  0
  -12.1249    9.2699  -10.6010 H   0  0  0  0  0  0  0  0  0  0  0  0
   -4.3180   14.6689   -8.7981 H   0  0  0  0  0  0  0  0  0  0  0  0
   -2.9091   14.9384   -6.7194 H   0  0  0  0  0  0  0  0  0  0  0  0
   -8.4740   10.7392   -0.9905 H   0  0  0  0  0  0  0  0  0  0  0  0
    0.6736   18.1256   -6.1362 H   0  0  0  0  0  0  0  0  0  0  0  0
    0.5223   17.3837   -4.3761 H   0  0  0  0  0  0  0  0  0  0  0  0
   -1.0248   18.0054   -5.2941 H   0  0  0  0  0  0  0  0  0  0  0  0
    1.6765   16.2920   -6.7733 H   0  0  0  0  0  0  0  0  0  0  0  0
    0.9040   14.6001   -6.6150 H   0  0  0  0  0  0  0  0  0  0  0  0
    1.4635   15.4864   -5.0758 H   0  0  0  0  0  0  0  0  0  0  0  0
  1  2  1  0  0  0  0
  1  6  1  0  0  0  0
  1 45  1  0  0  0  0
  1 46  1  0  0  0  0
  2  3  1  0  0  0  0
  2 48  1  0  0  0  0
  2 49  1  0  0  0  0
  3  4  1  0  0  0  0
  3 50  1  0  0  0  0
  3 51  1  0  0  0  0
  4  5  1  0  0  0  0
  4  7  1  0  0  0  0
  5  6  1  0  0  0  0
  5 52  1  0  0  0  0
  5 53  1  0  0  0  0
  6 54  1  0  0  0  0
  6 55  1  0  0  0  0
  7  8  1  0  0  0  0
  7 56  1  0  0  0  0
  7 57  1  0  0  0  0
  8  9  1  0  0  0  0
  8 44  1  0  0  0  0
  8 47  1  6  0  0  0
  9 10  1  0  0  0  0
  9 58  1  0  0  0  0
  9 59  1  0  0  0  0
 10 11  1  0  0  0  0
 10 14  1  0  0  0  0
 11 12  2  0  0  0  0
 11 39  1  0  0  0  0
 12 13  1  0  0  0  0
 12 36  1  0  0  0  0
 13 14  2  0  0  0  0
 13 15  1  0  0  0  0
 15 16  2  0  0  0  0
 15 20  1  0  0  0  0
 16 17  1  0  0  0  0
 16 60  1  0  0  0  0
 17 18  2  0  0  0  0
 17 61  1  0  0  0  0
 18 19  1  0  0  0  0
 18 32  1  0  0  0  0
 19 20  2  0  0  0  0
 19 21  1  0  0  0  0
 20 62  1  0  0  0  0
 21 22  1  0  0  0  0
 22 23  1  0  0  0  0
 22 63  1  0  0  0  0
 22 64  1  0  0  0  0
 23 24  1  0  0  0  0
 23 65  1  0  0  0  0
 23 66  1  0  0  0  0
 24 25  1  0  0  0  0
 24 29  1  0  0  0  0
 24 86  1  1  0  0  0
 25 26  1  0  0  0  0
 25 67  1  0  0  0  0
 25 68  1  0  0  0  0
 26 27  1  0  0  0  0
 26 69  1  0  0  0  0
 26 70  1  0  0  0  0
 27 28  1  0  0  0  0
 27 71  1  0  0  0  0
 27 72  1  0  0  0  0
 28 29  1  0  0  0  0
 28 30  1  0  0  0  0
 28 31  1  0  0  0  0
 29 73  1  0  0  0  0
 29 74  1  0  0  0  0
 32 33  1  0  0  0  0
 32 34  1  0  0  0  0
 32 35  1  0  0  0  0
 36 37  1  0  0  0  0
 36 75  1  0  0  0  0
 36 76  1  0  0  0  0
 37 38  1  0  0  0  0
 37 40  1  0  0  0  0
 38 39  1  0  0  0  0
 38 77  1  0  0  0  0
 38 78  1  0  0  0  0
 39 79  1  0  0  0  0
 39 80  1  0  0  0  0
 40 41  2  0  0  0  0
 40 42  2  0  0  0  0
 40 43  1  0  0  0  0
 43 81  1  0  0  0  0
 43 82  1  0  0  0  0
 43 83  1  0  0  0  0
 44 84  1  0  0  0  0
 85  4  1  0  0  0  0
 87 45  1  0  0  0  0
 88 45  1  0  0  0  0
 89 45  1  0  0  0  0
 90 46  1  0  0  0  0
 91 46  1  0  0  0  0
 92 46  1  0  0  0  0
M  CHG  2   4   1  24   1
M  END
$$$$
