CatS_191
 OpenBabel05281909343D

100104  0  0  1  0  0  0  0  0999 V2000
    3.4299   16.9052   -3.5878 O   0  0  0  0  0  0  0  0  0  0  0  0
    2.2311   16.6401   -4.3390 C   0  0  2  0  0  0  0  0  0  0  0  0
    1.3873   17.6878   -4.5419 C   0  0  0  0  0  0  0  0  0  0  0  0
    1.6511   18.7710   -4.0260 O   0  0  0  0  0  0  0  0  0  0  0  0
    0.2858   17.5008   -5.3039 N   0  0  0  0  0  0  0  0  0  0  0  0
   -0.1250   16.1702   -5.7827 C   0  0  1  0  0  0  0  0  0  0  0  0
   -1.1909   15.5860   -4.8378 C   0  0  0  0  0  0  0  0  0  0  0  0
   -1.6668   14.2211   -5.3740 C   0  0  0  0  0  0  0  0  0  0  0  0
   -2.2341   14.3440   -6.7309 N   0  3  1  0  0  0  0  0  0  0  0  0
   -1.2230   14.8909   -7.6589 C   0  0  0  0  0  0  0  0  0  0  0  0
   -0.7217   16.2749   -7.1991 C   0  0  0  0  0  0  0  0  0  0  0  0
   -2.7049   13.0259   -7.1970 C   0  0  0  0  0  0  0  0  0  0  0  0
   -3.4130   13.0570   -8.5707 C   0  0  1  0  0  0  0  0  0  0  0  0
   -3.3400   11.6550   -9.2000 C   0  0  0  0  0  0  0  0  0  0  0  0
   -4.3389   10.6962   -8.7089 N   0  0  0  0  0  0  0  0  0  0  0  0
   -5.5311   10.3251   -9.2410 C   0  0  0  0  0  0  0  0  0  0  0  0
   -6.2051    9.4822   -8.4578 C   0  0  0  0  0  0  0  0  0  0  0  0
   -5.3400    9.2811   -7.3580 C   0  0  0  0  0  0  0  0  0  0  0  0
   -4.2648   10.0229   -7.5359 N   0  0  0  0  0  0  0  0  0  0  0  0
   -5.5280    8.4131   -6.2060 C   0  0  0  0  0  0  0  0  0  0  0  0
   -4.4679    7.7390   -5.6282 C   0  0  0  0  0  0  0  0  0  0  0  0
   -4.6602    6.9418   -4.5280 C   0  0  0  0  0  0  0  0  0  0  0  0
   -5.9100    6.7699   -3.9699 C   0  0  0  0  0  0  0  0  0  0  0  0
   -6.9760    7.4400   -4.5579 C   0  0  0  0  0  0  0  0  0  0  0  0
   -6.7839    8.2539   -5.6508 C   0  0  0  0  0  0  0  0  0  0  0  0
   -8.6622    7.2889   -3.9531 S   0  0  0  0  0  0  0  0  0  0  0  0
   -9.2129    8.9470   -3.4731 C   0  0  0  0  0  0  0  0  0  0  0  0
   -8.0199    9.8151   -3.0207 C   0  0  0  0  0  0  0  0  0  0  0  0
   -8.4070   10.8680   -2.0652 N   0  3  2  0  0  0  0  0  0  0  0  0
   -9.7689   11.3443   -2.3740 C   0  0  0  0  0  0  0  0  0  0  0  0
  -10.2310   12.4112   -1.3618 C   0  0  0  0  0  0  0  0  0  0  0  0
   -9.2441   13.5921   -1.3601 C   0  0  2  0  0  0  0  0  0  0  0  0
   -7.8200   13.0742   -1.0854 C   0  0  0  0  0  0  0  0  0  0  0  0
   -7.4528   11.9950   -2.1232 C   0  0  0  0  0  0  0  0  0  0  0  0
   -5.9452    5.8569   -2.7421 C   0  0  0  0  0  0  0  0  0  0  0  0
   -4.9473    4.8879   -2.7811 F   0  0  0  0  0  0  0  0  0  0  0  0
   -7.1419    5.1659   -2.5931 F   0  0  0  0  0  0  0  0  0  0  0  0
   -5.7381    6.5909   -1.5779 F   0  0  0  0  0  0  0  0  0  0  0  0
   -7.5842    8.9492   -8.8238 C   0  0  0  0  0  0  0  0  0  0  0  0
   -8.2563    9.7461   -9.8749 N   0  0  0  0  0  0  0  0  0  0  0  0
   -7.3179    9.9450  -11.0011 C   0  0  0  0  0  0  0  0  0  0  0  0
   -6.0941   10.7930  -10.5731 C   0  0  0  0  0  0  0  0  0  0  0  0
   -9.7909    9.3101  -10.1698 S   0  0  0  0  0  0  0  0  0  0  0  0
   -9.8660    7.9421   -9.7661 O   0  0  0  0  0  0  0  0  0  0  0  0
  -10.0691    9.5800  -11.5448 O   0  0  0  0  0  0  0  0  0  0  0  0
  -10.9189   10.2888   -9.1312 C   0  0  0  0  0  0  0  0  0  0  0  0
   -9.5603   14.3844   -0.5171 C   0  0  0  0  0  0  0  0  0  0  0  0
   -4.5660   13.3629   -8.4241 O   0  0  0  0  0  0  0  0  0  0  0  0
    1.6568   15.7426   -3.7878 C   0  0  0  0  0  0  0  0  0  0  0  0
    2.6305   16.3063   -5.4208 H   0  0  0  0  0  0  0  0  0  0  0  0
   -2.8851   13.8321   -9.3199 H   0  0  0  0  0  0  0  0  0  0  0  0
   -0.2092   18.1997   -5.5072 H   0  0  0  0  0  0  0  0  0  0  0  0
    0.8141   15.4249   -5.8330 H   0  0  0  0  0  0  0  0  0  0  0  0
   -0.7250   15.4541   -3.7393 H   0  0  0  0  0  0  0  0  0  0  0  0
   -2.1310   16.3303   -4.7860 H   0  0  0  0  0  0  0  0  0  0  0  0
   -2.5058   13.8239   -4.6130 H   0  0  0  0  0  0  0  0  0  0  0  0
   -0.7431   13.4541   -5.3879 H   0  0  0  0  0  0  0  0  0  0  0  0
   -1.7002   15.0319   -8.7503 H   0  0  0  0  0  0  0  0  0  0  0  0
   -0.2802   14.1500   -7.7231 H   0  0  0  0  0  0  0  0  0  0  0  0
    0.1171   16.6711   -7.9589 H   0  0  0  0  0  0  0  0  0  0  0  0
   -1.6451   17.0419   -7.1907 H   0  0  0  0  0  0  0  0  0  0  0  0
   -3.5303   12.6210   -6.4259 H   0  0  0  0  0  0  0  0  0  0  0  0
   -1.8130   12.2241   -7.2249 H   0  0  0  0  0  0  0  0  0  0  0  0
   -3.4749   11.7691  -10.3871 H   0  0  0  0  0  0  0  0  0  0  0  0
   -2.2549   11.1928   -8.9840 H   0  0  0  0  0  0  0  0  0  0  0  0
   -3.5488    7.8379   -6.0090 H   0  0  0  0  0  0  0  0  0  0  0  0
   -3.8723    6.4761   -4.1252 H   0  0  0  0  0  0  0  0  0  0  0  0
   -7.5647    8.7320   -6.0520 H   0  0  0  0  0  0  0  0  0  0  0  0
   -9.7312    9.4502   -4.4322 H   0  0  0  0  0  0  0  0  0  0  0  0
  -10.0246    8.8693   -2.5917 H   0  0  0  0  0  0  0  0  0  0  0  0
   -7.5952   10.3442   -4.0121 H   0  0  0  0  0  0  0  0  0  0  0  0
   -7.1409    9.1330   -2.5670 H   0  0  0  0  0  0  0  0  0  0  0  0
  -10.5490   10.4350   -2.3161 H   0  0  0  0  0  0  0  0  0  0  0  0
   -9.7887   11.8011   -3.4842 H   0  0  0  0  0  0  0  0  0  0  0  0
  -10.2649   11.9170   -0.2703 H   0  0  0  0  0  0  0  0  0  0  0  0
  -11.3259   12.8009   -1.6600 H   0  0  0  0  0  0  0  0  0  0  0  0
   -9.2641   14.1292   -2.4331 H   0  0  0  0  0  0  0  0  0  0  0  0
   -7.0417   13.9839   -1.1569 H   0  0  0  0  0  0  0  0  0  0  0  0
   -7.7741   12.5990    0.0150 H   0  0  0  0  0  0  0  0  0  0  0  0
   -7.4589   12.4813   -3.2211 H   0  0  0  0  0  0  0  0  0  0  0  0
   -6.3402   11.6220   -1.8749 H   0  0  0  0  0  0  0  0  0  0  0  0
   -7.4863    7.8082   -9.1820 H   0  0  0  0  0  0  0  0  0  0  0  0
   -8.2802    8.9949   -7.8461 H   0  0  0  0  0  0  0  0  0  0  0  0
   -6.9430    8.8780  -11.4009 H   0  0  0  0  0  0  0  0  0  0  0  0
   -7.8699   10.5229  -11.8951 H   0  0  0  0  0  0  0  0  0  0  0  0
   -6.4269   11.9411  -10.4689 H   0  0  0  0  0  0  0  0  0  0  0  0
   -5.2558   10.6983  -11.4264 H   0  0  0  0  0  0  0  0  0  0  0  0
  -11.0142   11.4132   -9.5421 H   0  0  0  0  0  0  0  0  0  0  0  0
  -12.0136    9.7990   -9.1409 H   0  0  0  0  0  0  0  0  0  0  0  0
  -10.5201   10.3161   -7.9991 H   0  0  0  0  0  0  0  0  0  0  0  0
   -2.9464   14.9138   -6.7055 H   0  0  0  0  0  0  0  0  0  0  0  0
   -8.4056   10.5165   -1.2231 H   0  0  0  0  0  0  0  0  0  0  0  0
    4.0017   16.0808   -3.5081 H   0  0  0  0  0  0  0  0  0  0  0  0
  -10.6624   14.8194   -0.7188 H   0  0  0  0  0  0  0  0  0  0  0  0
   -9.5551   13.9284    0.5949 H   0  0  0  0  0  0  0  0  0  0  0  0
   -8.8248   15.3349   -0.5158 H   0  0  0  0  0  0  0  0  0  0  0  0
   -5.0607   13.3556   -9.2998 H   0  0  0  0  0  0  0  0  0  0  0  0
    0.8712   16.2276   -3.0226 H   0  0  0  0  0  0  0  0  0  0  0  0
    2.4000   15.2793   -2.9668 H   0  0  0  0  0  0  0  0  0  0  0  0
    1.3782   14.6764   -4.2640 H   0  0  0  0  0  0  0  0  0  0  0  0
  1 93  1  0  0  0  0
  2  1  1  0  0  0  0
  2 49  1  0  0  0  0
  2 50  1  6  0  0  0
  3  2  1  0  0  0  0
  4  3  2  0  0  0  0
  5  3  1  0  0  0  0
  6  5  1  0  0  0  0
  6 53  1  6  0  0  0
  7  6  1  0  0  0  0
  8  7  1  0  0  0  0
  9  8  1  0  0  0  0
  9 91  1  1  0  0  0
 10  9  1  0  0  0  0
 11  6  1  0  0  0  0
 11 10  1  0  0  0  0
 12  9  1  0  0  0  0
 13 12  1  0  0  0  0
 13 51  1  6  0  0  0
 14 13  1  0  0  0  0
 15 14  1  0  0  0  0
 16 15  1  0  0  0  0
 17 16  2  0  0  0  0
 18 17  1  0  0  0  0
 19 15  1  0  0  0  0
 19 18  2  0  0  0  0
 20 18  1  0  0  0  0
 21 20  2  0  0  0  0
 22 21  1  0  0  0  0
 23 22  2  0  0  0  0
 24 23  1  0  0  0  0
 25 20  1  0  0  0  0
 25 24  2  0  0  0  0
 26 24  1  0  0  0  0
 27 26  1  0  0  0  0
 28 27  1  0  0  0  0
 29 28  1  0  0  0  0
 29 92  1  1  0  0  0
 30 29  1  0  0  0  0
 31 30  1  0  0  0  0
 32 31  1  0  0  0  0
 32 77  1  6  0  0  0
 33 32  1  0  0  0  0
 34 29  1  0  0  0  0
 34 33  1  0  0  0  0
 35 23  1  0  0  0  0
 36 35  1  0  0  0  0
 37 35  1  0  0  0  0
 38 35  1  0  0  0  0
 39 17  1  0  0  0  0
 40 39  1  0  0  0  0
 41 40  1  0  0  0  0
 42 16  1  0  0  0  0
 42 41  1  0  0  0  0
 43 40  1  0  0  0  0
 44 43  2  0  0  0  0
 45 43  2  0  0  0  0
 46 43  1  0  0  0  0
 47 32  1  0  0  0  0
 47 94  1  0  0  0  0
 47 95  1  0  0  0  0
 47 96  1  0  0  0  0
 48 13  1  0  0  0  0
 49 98  1  0  0  0  0
 49 99  1  0  0  0  0
 49100  1  0  0  0  0
 52  5  1  0  0  0  0
 54  7  1  0  0  0  0
 55  7  1  0  0  0  0
 56  8  1  0  0  0  0
 57  8  1  0  0  0  0
 58 10  1  0  0  0  0
 59 10  1  0  0  0  0
 60 11  1  0  0  0  0
 61 11  1  0  0  0  0
 62 12  1  0  0  0  0
 63 12  1  0  0  0  0
 64 14  1  0  0  0  0
 65 14  1  0  0  0  0
 66 21  1  0  0  0  0
 67 22  1  0  0  0  0
 68 25  1  0  0  0  0
 69 27  1  0  0  0  0
 70 27  1  0  0  0  0
 71 28  1  0  0  0  0
 72 28  1  0  0  0  0
 73 30  1  0  0  0  0
 74 30  1  0  0  0  0
 75 31  1  0  0  0  0
 76 31  1  0  0  0  0
 78 33  1  0  0  0  0
 79 33  1  0  0  0  0
 80 34  1  0  0  0  0
 81 34  1  0  0  0  0
 82 39  1  0  0  0  0
 83 39  1  0  0  0  0
 84 41  1  0  0  0  0
 85 41  1  0  0  0  0
 86 42  1  0  0  0  0
 87 42  1  0  0  0  0
 88 46  1  0  0  0  0
 89 46  1  0  0  0  0
 90 46  1  0  0  0  0
 97 48  1  0  0  0  0
M  CHG  2   9   1  29   1
M  END
$$$$
