CatS_167
 OpenBabel05281909343D

 86 90  0  0  1  0  0  0  0  0999 V2000
  -11.1100    9.8620   -9.5889 C   0  0  0  0  0  0  0  0  0  0  0  0
   -9.6960    9.0640  -10.4260 S   0  0  0  0  0  0  0  0  0  0  0  0
   -9.8719    9.0770  -11.8410 O   0  0  0  0  0  0  0  0  0  0  0  0
   -9.5970    7.6850  -10.0809 O   0  0  0  0  0  0  0  0  0  0  0  0
   -8.3700    9.9129   -9.9500 N   0  0  0  0  0  0  0  0  0  0  0  0
   -7.3221   10.2950  -10.9270 C   0  0  0  0  0  0  0  0  0  0  0  0
   -6.1500   11.1260  -10.3569 C   0  0  0  0  0  0  0  0  0  0  0  0
   -5.5861   10.4649   -9.1170 C   0  0  0  0  0  0  0  0  0  0  0  0
   -6.3261    9.6380   -8.3821 C   0  0  0  0  0  0  0  0  0  0  0  0
   -5.4569    9.2400   -7.3390 C   0  0  0  0  0  0  0  0  0  0  0  0
   -4.2949    9.8431   -7.5289 N   0  0  0  0  0  0  0  0  0  0  0  0
   -4.3301   10.6269   -8.6361 N   0  0  0  0  0  0  0  0  0  0  0  0
   -3.2480   11.4971   -9.1350 C   0  0  0  0  0  0  0  0  0  0  0  0
   -3.0009   12.9921   -8.8049 C   0  0  2  0  0  0  0  0  0  0  0  0
   -2.5730   13.0958   -7.3180 C   0  0  0  0  0  0  0  0  0  0  0  0
   -2.1421   14.4110   -6.7969 N   0  3  0  0  0  0  0  0  0  0  0  0
   -1.5680   14.2470   -5.4580 C   0  0  0  0  0  0  0  0  0  0  0  0
   -1.1331   15.5800   -4.8679 C   0  0  0  0  0  0  0  0  0  0  0  0
   -0.1081   16.2381   -5.7749 C   0  0  0  0  0  0  0  0  0  0  0  0
   -0.6700   16.3831   -7.1829 C   0  0  0  0  0  0  0  0  0  0  0  0
   -1.1529   15.0320   -7.7050 C   0  0  0  0  0  0  0  0  0  0  0  0
   -4.1959   13.7621   -9.0109 O   0  0  0  0  0  0  0  0  0  0  0  0
   -5.7030    8.3279   -6.2200 C   0  0  0  0  0  0  0  0  0  0  0  0
   -4.6291    7.5410   -5.8510 C   0  0  0  0  0  0  0  0  0  0  0  0
   -4.7199    6.6610   -4.8049 C   0  0  0  0  0  0  0  0  0  0  0  0
   -5.8800    6.5279   -4.0729 C   0  0  0  0  0  0  0  0  0  0  0  0
   -6.9769    7.3051   -4.4240 C   0  0  0  0  0  0  0  0  0  0  0  0
   -6.8839    8.1859   -5.4910 C   0  0  0  0  0  0  0  0  0  0  0  0
   -8.5100    7.2529   -3.4579 S   0  0  0  0  0  0  0  0  0  0  0  0
   -9.2440    8.8920   -3.0991 C   0  0  0  0  0  0  0  0  0  0  0  0
   -8.2691   10.0270   -2.6570 C   0  0  0  0  0  0  0  0  0  0  0  0
   -8.6161   11.1681   -1.7571 N   0  3  0  0  0  0  0  0  0  0  0  0
  -10.0019   11.5880   -1.9740 C   0  0  0  0  0  0  0  0  0  0  0  0
  -10.3500   12.7420   -0.9870 C   0  0  0  0  0  0  0  0  0  0  0  0
   -9.4020   13.9620   -1.0441 C   0  0  0  0  0  0  0  0  0  0  0  0
   -7.9331   13.5110   -1.1112 C   0  0  0  0  0  0  0  0  0  0  0  0
   -7.7319   12.3120   -2.0680 C   0  0  0  0  0  0  0  0  0  0  0  0
   -9.7220   14.8329   -2.0919 F   0  0  0  0  0  0  0  0  0  0  0  0
   -9.5999   14.7190    0.0970 F   0  0  0  0  0  0  0  0  0  0  0  0
   -5.8030    5.5361   -2.9139 C   0  0  0  0  0  0  0  0  0  0  0  0
   -5.5839    6.1639   -1.6960 F   0  0  0  0  0  0  0  0  0  0  0  0
   -6.9659    4.7880   -2.7561 F   0  0  0  0  0  0  0  0  0  0  0  0
   -4.7640    4.6371   -3.1149 F   0  0  0  0  0  0  0  0  0  0  0  0
   -7.7549    9.2780   -8.7549 C   0  0  0  0  0  0  0  0  0  0  0  0
   -2.1230   13.4022   -9.5141 H   0  0  0  0  0  0  0  0  0  0  0  0
  -11.0869   11.0660   -9.7220 H   0  0  0  0  0  0  0  0  0  0  0  0
  -12.1090    9.4549  -10.1430 H   0  0  0  0  0  0  0  0  0  0  0  0
  -11.1331    9.5380   -8.4201 H   0  0  0  0  0  0  0  0  0  0  0  0
   -7.8180   11.0090  -11.7531 H   0  0  0  0  0  0  0  0  0  0  0  0
   -6.8791    9.3079  -11.4470 H   0  0  0  0  0  0  0  0  0  0  0  0
   -6.5530   12.2180  -10.0630 H   0  0  0  0  0  0  0  0  0  0  0  0
   -5.3069   11.2300  -11.2030 H   0  0  0  0  0  0  0  0  0  0  0  0
   -2.2340   10.9351   -8.8290 H   0  0  0  0  0  0  0  0  0  0  0  0
   -3.3509   11.4209  -10.3270 H   0  0  0  0  0  0  0  0  0  0  0  0
   -1.7001   12.2960   -7.1299 H   0  0  0  0  0  0  0  0  0  0  0  0
   -3.5129   12.7749   -6.6419 H   0  0  0  0  0  0  0  0  0  0  0  0
   -0.6260   13.5019   -5.4970 H   0  0  0  0  0  0  0  0  0  0  0  0
   -2.4040   13.7351   -4.7640 H   0  0  0  0  0  0  0  0  0  0  0  0
   -0.6171   15.4020   -3.7980 H   0  0  0  0  0  0  0  0  0  0  0  0
   -2.0719   16.3119   -4.7150 H   0  0  0  0  0  0  0  0  0  0  0  0
    0.1610   17.3260   -5.3440 H   0  0  0  0  0  0  0  0  0  0  0  0
    0.8880   15.5679   -5.8141 H   0  0  0  0  0  0  0  0  0  0  0  0
    0.2091   16.8080   -7.8829 H   0  0  0  0  0  0  0  0  0  0  0  0
   -1.5551   17.1960   -7.1560 H   0  0  0  0  0  0  0  0  0  0  0  0
   -0.2010   14.3149   -7.8480 H   0  0  0  0  0  0  0  0  0  0  0  0
   -1.6561   15.2150   -8.7791 H   0  0  0  0  0  0  0  0  0  0  0  0
   -4.4940   13.7331   -9.9720 H   0  0  0  0  0  0  0  0  0  0  0  0
   -3.7671    7.6160   -6.3520 H   0  0  0  0  0  0  0  0  0  0  0  0
   -3.9220    6.1091   -4.5670 H   0  0  0  0  0  0  0  0  0  0  0  0
   -7.6771    8.7430   -5.7311 H   0  0  0  0  0  0  0  0  0  0  0  0
   -9.7120    9.2281   -4.1559 H   0  0  0  0  0  0  0  0  0  0  0  0
  -10.1730    8.8320   -2.3480 H   0  0  0  0  0  0  0  0  0  0  0  0
   -7.8790   10.5190   -3.6810 H   0  0  0  0  0  0  0  0  0  0  0  0
   -7.3240    9.4591   -2.1840 H   0  0  0  0  0  0  0  0  0  0  0  0
  -10.7659   10.7071   -1.6800 H   0  0  0  0  0  0  0  0  0  0  0  0
  -10.1501   11.8940   -3.1310 H   0  0  0  0  0  0  0  0  0  0  0  0
  -10.4409   12.3638    0.1509 H   0  0  0  0  0  0  0  0  0  0  0  0
  -11.4088   13.1469   -1.3421 H   0  0  0  0  0  0  0  0  0  0  0  0
   -7.6111   13.1900   -0.0010 H   0  0  0  0  0  0  0  0  0  0  0  0
   -7.2381   14.4069   -1.5090 H   0  0  0  0  0  0  0  0  0  0  0  0
   -6.5860   11.9610   -2.0011 H   0  0  0  0  0  0  0  0  0  0  0  0
   -7.9820   12.7270   -3.1741 H   0  0  0  0  0  0  0  0  0  0  0  0
   -8.4760    9.4981   -7.8221 H   0  0  0  0  0  0  0  0  0  0  0  0
   -7.7330    8.0949   -8.9470 H   0  0  0  0  0  0  0  0  0  0  0  0
   -2.8685   14.9617   -6.7483 H   0  0  0  0  0  0  0  0  0  0  0  0
   -8.5044   10.9214   -0.8862 H   0  0  0  0  0  0  0  0  0  0  0  0
  1  2  1  0  0  0  0
  1 46  1  0  0  0  0
  1 47  1  0  0  0  0
  1 48  1  0  0  0  0
  2  3  2  0  0  0  0
  2  4  2  0  0  0  0
  2  5  1  0  0  0  0
  5  6  1  0  0  0  0
  5 44  1  0  0  0  0
  6  7  1  0  0  0  0
  6 49  1  0  0  0  0
  6 50  1  0  0  0  0
  7  8  1  0  0  0  0
  7 51  1  0  0  0  0
  7 52  1  0  0  0  0
  8  9  2  0  0  0  0
  8 12  1  0  0  0  0
  9 10  1  0  0  0  0
  9 44  1  0  0  0  0
 10 11  2  0  0  0  0
 10 23  1  0  0  0  0
 11 12  1  0  0  0  0
 12 13  1  0  0  0  0
 13 14  1  0  0  0  0
 13 53  1  0  0  0  0
 13 54  1  0  0  0  0
 14 15  1  0  0  0  0
 14 22  1  0  0  0  0
 14 45  1  6  0  0  0
 15 16  1  0  0  0  0
 15 55  1  0  0  0  0
 15 56  1  0  0  0  0
 16 17  1  0  0  0  0
 16 21  1  0  0  0  0
 16 85  1  0  0  0  0
 17 18  1  0  0  0  0
 17 57  1  0  0  0  0
 17 58  1  0  0  0  0
 18 19  1  0  0  0  0
 18 59  1  0  0  0  0
 18 60  1  0  0  0  0
 19 20  1  0  0  0  0
 19 61  1  0  0  0  0
 19 62  1  0  0  0  0
 20 21  1  0  0  0  0
 20 63  1  0  0  0  0
 20 64  1  0  0  0  0
 21 65  1  0  0  0  0
 21 66  1  0  0  0  0
 22 67  1  0  0  0  0
 23 24  2  0  0  0  0
 23 28  1  0  0  0  0
 24 25  1  0  0  0  0
 24 68  1  0  0  0  0
 25 26  2  0  0  0  0
 25 69  1  0  0  0  0
 26 27  1  0  0  0  0
 26 40  1  0  0  0  0
 27 28  2  0  0  0  0
 27 29  1  0  0  0  0
 28 70  1  0  0  0  0
 29 30  1  0  0  0  0
 30 31  1  0  0  0  0
 30 71  1  0  0  0  0
 30 72  1  0  0  0  0
 31 32  1  0  0  0  0
 31 73  1  0  0  0  0
 31 74  1  0  0  0  0
 32 33  1  0  0  0  0
 32 37  1  0  0  0  0
 32 86  1  0  0  0  0
 33 34  1  0  0  0  0
 33 75  1  0  0  0  0
 33 76  1  0  0  0  0
 34 35  1  0  0  0  0
 34 77  1  0  0  0  0
 34 78  1  0  0  0  0
 35 36  1  0  0  0  0
 35 38  1  0  0  0  0
 35 39  1  0  0  0  0
 36 37  1  0  0  0  0
 36 79  1  0  0  0  0
 36 80  1  0  0  0  0
 37 81  1  0  0  0  0
 37 82  1  0  0  0  0
 40 41  1  0  0  0  0
 40 42  1  0  0  0  0
 40 43  1  0  0  0  0
 44 83  1  0  0  0  0
 44 84  1  0  0  0  0
M  CHG  2  16   1  32   1
M  END
$$$$
