CatS_155
 OpenBabel05281909343D

 93 97  0  0  1  0  0  0  0  0999 V2000
    2.2313   16.6400   -4.3391 C   0  0  0  0  0  0  0  0  0  0  0  0
    1.3872   17.6879   -4.5420 C   0  0  0  0  0  0  0  0  0  0  0  0
    1.6511   18.7710   -4.0262 O   0  0  0  0  0  0  0  0  0  0  0  0
    0.2860   17.5012   -5.3039 N   0  0  0  0  0  0  0  0  0  0  0  0
   -0.1252   16.1702   -5.7827 C   0  0  1  0  0  0  0  0  0  0  0  0
   -1.1912   15.5860   -4.8380 C   0  0  0  0  0  0  0  0  0  0  0  0
   -1.6669   14.2211   -5.3740 C   0  0  0  0  0  0  0  0  0  0  0  0
   -2.2339   14.3438   -6.7308 N   0  3  1  0  0  0  0  0  0  0  0  0
   -1.2228   14.8911   -7.6593 C   0  0  0  0  0  0  0  0  0  0  0  0
   -0.7217   16.2749   -7.1989 C   0  0  0  0  0  0  0  0  0  0  0  0
   -2.7050   13.0259   -7.1968 C   0  0  0  0  0  0  0  0  0  0  0  0
   -3.4132   13.0571   -8.5709 C   0  0  1  0  0  0  0  0  0  0  0  0
   -3.3400   11.6550   -9.1998 C   0  0  0  0  0  0  0  0  0  0  0  0
   -4.3390   10.6961   -8.7088 N   0  0  0  0  0  0  0  0  0  0  0  0
   -5.5312   10.3248   -9.2410 C   0  0  0  0  0  0  0  0  0  0  0  0
   -6.2049    9.4821   -8.4578 C   0  0  0  0  0  0  0  0  0  0  0  0
   -5.3399    9.2810   -7.3580 C   0  0  0  0  0  0  0  0  0  0  0  0
   -4.2650   10.0230   -7.5358 N   0  0  0  0  0  0  0  0  0  0  0  0
   -5.5278    8.4129   -6.2061 C   0  0  0  0  0  0  0  0  0  0  0  0
   -4.4680    7.7388   -5.6279 C   0  0  0  0  0  0  0  0  0  0  0  0
   -4.6602    6.9418   -4.5279 C   0  0  0  0  0  0  0  0  0  0  0  0
   -5.9099    6.7698   -3.9697 C   0  0  0  0  0  0  0  0  0  0  0  0
   -6.9761    7.4399   -4.5579 C   0  0  0  0  0  0  0  0  0  0  0  0
   -6.7842    8.2539   -5.6508 C   0  0  0  0  0  0  0  0  0  0  0  0
   -8.6619    7.2888   -3.9531 S   0  0  0  0  0  0  0  0  0  0  0  0
   -9.2130    8.9469   -3.4730 C   0  0  0  0  0  0  0  0  0  0  0  0
   -8.0200    9.8149   -3.0210 C   0  0  0  0  0  0  0  0  0  0  0  0
   -8.4071   10.8678   -2.0650 N   0  3  2  0  0  0  0  0  0  0  0  0
   -9.7689   11.3441   -2.3740 C   0  0  0  0  0  0  0  0  0  0  0  0
  -10.2310   12.4110   -1.3620 C   0  0  0  0  0  0  0  0  0  0  0  0
   -9.2441   13.5921   -1.3600 C   0  0  0  0  0  0  0  0  0  0  0  0
   -7.8200   13.0740   -1.0852 C   0  0  0  0  0  0  0  0  0  0  0  0
   -7.4529   11.9953   -2.1233 C   0  0  0  0  0  0  0  0  0  0  0  0
   -5.9450    5.8568   -2.7420 C   0  0  0  0  0  0  0  0  0  0  0  0
   -4.9471    4.8882   -2.7811 F   0  0  0  0  0  0  0  0  0  0  0  0
   -7.1421    5.1658   -2.5930 F   0  0  0  0  0  0  0  0  0  0  0  0
   -5.7380    6.5909   -1.5781 F   0  0  0  0  0  0  0  0  0  0  0  0
   -7.5840    8.9490   -8.8240 C   0  0  0  0  0  0  0  0  0  0  0  0
   -8.2560    9.7459   -9.8750 N   0  0  0  0  0  0  0  0  0  0  0  0
   -7.3183    9.9451  -11.0010 C   0  0  0  0  0  0  0  0  0  0  0  0
   -6.0937   10.7929  -10.5729 C   0  0  0  0  0  0  0  0  0  0  0  0
   -9.7911    9.3098  -10.1699 S   0  0  0  0  0  0  0  0  0  0  0  0
   -9.8658    7.9421   -9.7661 O   0  0  0  0  0  0  0  0  0  0  0  0
  -10.0690    9.5797  -11.5451 O   0  0  0  0  0  0  0  0  0  0  0  0
  -10.9190   10.2892   -9.1310 C   0  0  0  0  0  0  0  0  0  0  0  0
   -7.0419   13.9838   -1.1570 F   0  0  0  0  0  0  0  0  0  0  0  0
   -7.7740   12.5989    0.0154 F   0  0  0  0  0  0  0  0  0  0  0  0
   -4.5659   13.3631   -8.4238 O   0  0  0  0  0  0  0  0  0  0  0  0
  -10.2649   11.9170   -0.2702 H   0  0  0  0  0  0  0  0  0  0  0  0
  -11.3259   12.8010   -1.6600 H   0  0  0  0  0  0  0  0  0  0  0  0
   -0.2091   18.2002   -5.5072 H   0  0  0  0  0  0  0  0  0  0  0  0
    0.8141   15.4249   -5.8333 H   0  0  0  0  0  0  0  0  0  0  0  0
   -0.7248   15.4541   -3.7392 H   0  0  0  0  0  0  0  0  0  0  0  0
   -2.1312   16.3301   -4.7860 H   0  0  0  0  0  0  0  0  0  0  0  0
   -2.5060   13.8240   -4.6128 H   0  0  0  0  0  0  0  0  0  0  0  0
   -0.7428   13.4541   -5.3882 H   0  0  0  0  0  0  0  0  0  0  0  0
   -1.6999   15.0321   -8.7499 H   0  0  0  0  0  0  0  0  0  0  0  0
   -0.2800   14.1500   -7.7228 H   0  0  0  0  0  0  0  0  0  0  0  0
    0.1171   16.6712   -7.9592 H   0  0  0  0  0  0  0  0  0  0  0  0
   -1.6450   17.0420   -7.1912 H   0  0  0  0  0  0  0  0  0  0  0  0
   -3.5304   12.6211   -6.4257 H   0  0  0  0  0  0  0  0  0  0  0  0
   -1.8129   12.2240   -7.2250 H   0  0  0  0  0  0  0  0  0  0  0  0
   -2.8852   13.8323   -9.3197 H   0  0  0  0  0  0  0  0  0  0  0  0
   -3.4748   11.7690  -10.3870 H   0  0  0  0  0  0  0  0  0  0  0  0
   -2.2547   11.1927   -8.9840 H   0  0  0  0  0  0  0  0  0  0  0  0
   -3.5490    7.8379   -6.0090 H   0  0  0  0  0  0  0  0  0  0  0  0
   -3.8721    6.4759   -4.1250 H   0  0  0  0  0  0  0  0  0  0  0  0
   -7.5649    8.7320   -6.0518 H   0  0  0  0  0  0  0  0  0  0  0  0
   -9.7311    9.4499   -4.4320 H   0  0  0  0  0  0  0  0  0  0  0  0
  -10.0249    8.8688   -2.5918 H   0  0  0  0  0  0  0  0  0  0  0  0
   -7.5952   10.3439   -4.0119 H   0  0  0  0  0  0  0  0  0  0  0  0
   -7.1412    9.1328   -2.5671 H   0  0  0  0  0  0  0  0  0  0  0  0
  -10.5491   10.4352   -2.3161 H   0  0  0  0  0  0  0  0  0  0  0  0
   -9.7889   11.8010   -3.4840 H   0  0  0  0  0  0  0  0  0  0  0  0
   -9.5603   14.3840   -0.5171 H   0  0  0  0  0  0  0  0  0  0  0  0
   -9.2640   14.1292   -2.4330 H   0  0  0  0  0  0  0  0  0  0  0  0
   -7.4591   12.4808   -3.2210 H   0  0  0  0  0  0  0  0  0  0  0  0
   -6.3400   11.6218   -1.8749 H   0  0  0  0  0  0  0  0  0  0  0  0
   -7.4860    7.8082   -9.1821 H   0  0  0  0  0  0  0  0  0  0  0  0
   -8.2802    8.9950   -7.8460 H   0  0  0  0  0  0  0  0  0  0  0  0
   -6.9429    8.8782  -11.4010 H   0  0  0  0  0  0  0  0  0  0  0  0
   -7.8698   10.5228  -11.8950 H   0  0  0  0  0  0  0  0  0  0  0  0
   -6.4271   11.9410  -10.4688 H   0  0  0  0  0  0  0  0  0  0  0  0
   -5.2559   10.6981  -11.4263 H   0  0  0  0  0  0  0  0  0  0  0  0
  -11.0142   11.4130   -9.5421 H   0  0  0  0  0  0  0  0  0  0  0  0
  -12.0138    9.7990   -9.1410 H   0  0  0  0  0  0  0  0  0  0  0  0
  -10.5203   10.3159   -7.9992 H   0  0  0  0  0  0  0  0  0  0  0  0
   -2.9463   14.9137   -6.7054 H   0  0  0  0  0  0  0  0  0  0  0  0
   -8.4056   10.5163   -1.2228 H   0  0  0  0  0  0  0  0  0  0  0  0
    3.0935   16.9891   -3.5799 H   0  0  0  0  0  0  0  0  0  0  0  0
    1.6684   15.7122   -3.8276 H   0  0  0  0  0  0  0  0  0  0  0  0
    2.7682   16.3231   -5.3651 H   0  0  0  0  0  0  0  0  0  0  0  0
   -5.0741   13.3031   -9.2900 H   0  0  0  0  0  0  0  0  0  0  0  0
  1  2  1  0  0  0  0
  2  3  2  0  0  0  0
  2  4  1  0  0  0  0
  4  5  1  0  0  0  0
  4 51  1  0  0  0  0
  5  6  1  0  0  0  0
  5 10  1  0  0  0  0
  5 52  1  6  0  0  0
  6  7  1  0  0  0  0
  6 53  1  0  0  0  0
  6 54  1  0  0  0  0
  7  8  1  0  0  0  0
  7 55  1  0  0  0  0
  7 56  1  0  0  0  0
  8  9  1  0  0  0  0
  8 11  1  0  0  0  0
  8 88  1  1  0  0  0
  9 10  1  0  0  0  0
  9 57  1  0  0  0  0
  9 58  1  0  0  0  0
 10 59  1  0  0  0  0
 10 60  1  0  0  0  0
 11 12  1  0  0  0  0
 11 61  1  0  0  0  0
 11 62  1  0  0  0  0
 12 13  1  0  0  0  0
 12 48  1  0  0  0  0
 12 63  1  6  0  0  0
 13 14  1  0  0  0  0
 13 64  1  0  0  0  0
 13 65  1  0  0  0  0
 14 15  1  0  0  0  0
 14 18  1  0  0  0  0
 15 16  2  0  0  0  0
 15 41  1  0  0  0  0
 16 17  1  0  0  0  0
 16 38  1  0  0  0  0
 17 18  2  0  0  0  0
 17 19  1  0  0  0  0
 19 20  2  0  0  0  0
 19 24  1  0  0  0  0
 20 21  1  0  0  0  0
 20 66  1  0  0  0  0
 21 22  2  0  0  0  0
 21 67  1  0  0  0  0
 22 23  1  0  0  0  0
 22 34  1  0  0  0  0
 23 24  2  0  0  0  0
 23 25  1  0  0  0  0
 24 68  1  0  0  0  0
 25 26  1  0  0  0  0
 26 27  1  0  0  0  0
 26 69  1  0  0  0  0
 26 70  1  0  0  0  0
 27 28  1  0  0  0  0
 27 71  1  0  0  0  0
 27 72  1  0  0  0  0
 28 29  1  0  0  0  0
 28 33  1  0  0  0  0
 28 89  1  1  0  0  0
 29 30  1  0  0  0  0
 29 73  1  0  0  0  0
 29 74  1  0  0  0  0
 30 31  1  0  0  0  0
 30 49  1  0  0  0  0
 30 50  1  0  0  0  0
 31 32  1  0  0  0  0
 31 75  1  0  0  0  0
 31 76  1  0  0  0  0
 32 33  1  0  0  0  0
 32 46  1  0  0  0  0
 32 47  1  0  0  0  0
 33 77  1  0  0  0  0
 33 78  1  0  0  0  0
 34 35  1  0  0  0  0
 34 36  1  0  0  0  0
 34 37  1  0  0  0  0
 38 39  1  0  0  0  0
 38 79  1  0  0  0  0
 38 80  1  0  0  0  0
 39 40  1  0  0  0  0
 39 42  1  0  0  0  0
 40 41  1  0  0  0  0
 40 81  1  0  0  0  0
 40 82  1  0  0  0  0
 41 83  1  0  0  0  0
 41 84  1  0  0  0  0
 42 43  2  0  0  0  0
 42 44  2  0  0  0  0
 42 45  1  0  0  0  0
 45 85  1  0  0  0  0
 45 86  1  0  0  0  0
 45 87  1  0  0  0  0
 48 93  1  0  0  0  0
 90  1  1  0  0  0  0
 91  1  1  0  0  0  0
 92  1  1  0  0  0  0
M  CHG  2   8   1  28   1
M  END
$$$$
