CatS_172
 OpenBabel05281909343D

 90 94  0  0  1  0  0  0  0  0999 V2000
    1.3339   16.0010   -5.8729 O   0  0  0  0  0  0  0  0  0  0  0  0
   -0.0730   16.6139   -5.7500 C   0  0  2  0  0  0  0  0  0  0  0  0
   -0.9227   15.7400   -4.8440 C   0  0  0  0  0  0  0  0  0  0  0  0
   -1.1369   14.3780   -5.4879 C   0  0  0  0  0  0  0  0  0  0  0  0
   -1.7891   14.4969   -6.7951 N   0  3  1  0  0  0  0  0  0  0  0  0
   -0.9682   15.3260   -7.7038 C   0  0  0  0  0  0  0  0  0  0  0  0
   -0.7129   16.7182   -7.1278 C   0  0  0  0  0  0  0  0  0  0  0  0
   -2.0430   13.1670   -7.4036 C   0  0  0  0  0  0  0  0  0  0  0  0
   -3.3092   13.0530   -8.2947 C   0  0  1  0  0  0  0  0  0  0  0  0
   -3.4939   11.6570   -8.9740 C   0  0  0  0  0  0  0  0  0  0  0  0
   -4.3588   10.4680   -8.7431 N   0  0  0  0  0  0  0  0  0  0  0  0
   -5.5840   10.1768   -9.2680 C   0  0  0  0  0  0  0  0  0  0  0  0
   -6.2739    9.2901   -8.5489 C   0  0  0  0  0  0  0  0  0  0  0  0
   -5.4101    8.9541   -7.4849 C   0  0  0  0  0  0  0  0  0  0  0  0
   -4.2989    9.6549   -7.6451 N   0  0  0  0  0  0  0  0  0  0  0  0
   -5.6730    8.0780   -6.3410 C   0  0  0  0  0  0  0  0  0  0  0  0
   -4.6270    7.3004   -5.8859 C   0  0  0  0  0  0  0  0  0  0  0  0
   -4.7569    6.5311   -4.7569 C   0  0  0  0  0  0  0  0  0  0  0  0
   -5.9250    6.5021   -4.0209 C   0  0  0  0  0  0  0  0  0  0  0  0
   -7.0082    7.2398   -4.4828 C   0  0  0  0  0  0  0  0  0  0  0  0
   -6.8690    7.9989   -5.6309 C   0  0  0  0  0  0  0  0  0  0  0  0
   -8.6063    7.3360   -3.6277 S   0  0  0  0  0  0  0  0  0  0  0  0
   -9.4422    8.9121   -3.1979 C   0  0  0  0  0  0  0  0  0  0  0  0
   -8.3441    9.9561   -2.8597 C   0  0  0  0  0  0  0  0  0  0  0  0
   -8.6161   11.0729   -1.9190 N   0  3  0  0  0  0  0  0  0  0  0  0
  -10.0008   11.5207   -2.0632 C   0  0  0  0  0  0  0  0  0  0  0  0
  -10.3279   12.6039   -1.0381 C   0  0  0  0  0  0  0  0  0  0  0  0
   -9.3919   13.7980   -1.1520 C   0  0  0  0  0  0  0  0  0  0  0  0
   -7.9517   13.3157   -1.1533 C   0  0  0  0  0  0  0  0  0  0  0  0
   -7.7232   12.2040   -2.1671 C   0  0  0  0  0  0  0  0  0  0  0  0
   -5.8592    5.6670   -2.7469 C   0  0  0  0  0  0  0  0  0  0  0  0
   -7.0140    4.9253   -2.5169 F   0  0  0  0  0  0  0  0  0  0  0  0
   -5.6489    6.4551   -1.6219 F   0  0  0  0  0  0  0  0  0  0  0  0
   -4.8281    4.7411   -2.8282 F   0  0  0  0  0  0  0  0  0  0  0  0
   -7.6889    8.8533   -8.8999 C   0  0  0  0  0  0  0  0  0  0  0  0
   -8.3879    9.7008   -9.8890 N   0  0  0  0  0  0  0  0  0  0  0  0
   -7.4590   10.0388  -10.9909 C   0  0  0  0  0  0  0  0  0  0  0  0
   -6.2001   10.8081  -10.5067 C   0  0  0  0  0  0  0  0  0  0  0  0
   -9.9432    9.2749  -10.1869 S   0  0  0  0  0  0  0  0  0  0  0  0
   -9.9671    7.8830   -9.8720 O   0  0  0  0  0  0  0  0  0  0  0  0
  -10.1032    9.4901  -11.5877 O   0  0  0  0  0  0  0  0  0  0  0  0
  -11.5721    9.7761   -9.5749 C   0  0  0  0  0  0  0  0  0  0  0  0
    0.1061   18.0261   -5.1610 C   0  0  0  0  0  0  0  0  0  0  0  0
   -9.5810   14.5220   -0.2143 F   0  0  0  0  0  0  0  0  0  0  0  0
   -9.6721   14.4920   -2.3298 F   0  0  0  0  0  0  0  0  0  0  0  0
   -4.2389   13.1650   -7.5459 O   0  0  0  0  0  0  0  0  0  0  0  0
   -3.4290   14.1698   -9.1869 H   0  0  0  0  0  0  0  0  0  0  0  0
   -1.9700   16.2878   -4.6291 H   0  0  0  0  0  0  0  0  0  0  0  0
   -0.3638   15.6000   -3.7912 H   0  0  0  0  0  0  0  0  0  0  0  0
   -0.0640   13.8449   -5.4830 H   0  0  0  0  0  0  0  0  0  0  0  0
   -1.8559   13.7672   -4.7461 H   0  0  0  0  0  0  0  0  0  0  0  0
    0.0861   14.7891   -7.9052 H   0  0  0  0  0  0  0  0  0  0  0  0
   -1.5381   15.4580   -8.7510 H   0  0  0  0  0  0  0  0  0  0  0  0
   -1.7711   17.2781   -7.0540 H   0  0  0  0  0  0  0  0  0  0  0  0
   -0.0081   17.3399   -7.8758 H   0  0  0  0  0  0  0  0  0  0  0  0
   -1.1190   12.8881   -8.1170 H   0  0  0  0  0  0  0  0  0  0  0  0
   -2.1011   12.3480   -6.5278 H   0  0  0  0  0  0  0  0  0  0  0  0
   -3.6390   11.9001  -10.1399 H   0  0  0  0  0  0  0  0  0  0  0  0
   -2.3969   11.1732   -8.8922 H   0  0  0  0  0  0  0  0  0  0  0  0
   -3.7551    7.3130   -6.3768 H   0  0  0  0  0  0  0  0  0  0  0  0
   -3.9720    5.9943   -4.4510 H   0  0  0  0  0  0  0  0  0  0  0  0
   -7.6538    8.5290   -5.9437 H   0  0  0  0  0  0  0  0  0  0  0  0
  -10.1219    8.7889   -2.2208 H   0  0  0  0  0  0  0  0  0  0  0  0
  -10.1121    9.2963   -4.1159 H   0  0  0  0  0  0  0  0  0  0  0  0
   -7.3821    9.3488   -2.4770 H   0  0  0  0  0  0  0  0  0  0  0  0
   -8.0589   10.4588   -3.9129 H   0  0  0  0  0  0  0  0  0  0  0  0
  -10.6992   10.5540   -1.9231 H   0  0  0  0  0  0  0  0  0  0  0  0
  -10.1970   11.9491   -3.1672 H   0  0  0  0  0  0  0  0  0  0  0  0
  -11.4379   13.0199   -1.2279 H   0  0  0  0  0  0  0  0  0  0  0  0
  -10.2710   12.1601    0.0760 H   0  0  0  0  0  0  0  0  0  0  0  0
   -7.6900   12.9481   -0.0398 H   0  0  0  0  0  0  0  0  0  0  0  0
   -7.2301   14.2411   -1.4130 H   0  0  0  0  0  0  0  0  0  0  0  0
   -7.9248   12.6462   -3.2640 H   0  0  0  0  0  0  0  0  0  0  0  0
   -6.5719   11.8759   -2.0900 H   0  0  0  0  0  0  0  0  0  0  0  0
   -8.3718    8.9080   -7.9170 H   0  0  0  0  0  0  0  0  0  0  0  0
   -7.6540    7.7251   -9.3070 H   0  0  0  0  0  0  0  0  0  0  0  0
   -7.1280    9.0281  -11.5449 H   0  0  0  0  0  0  0  0  0  0  0  0
   -8.0408   10.7380  -11.7743 H   0  0  0  0  0  0  0  0  0  0  0  0
   -5.3911   10.8441  -11.3930 H   0  0  0  0  0  0  0  0  0  0  0  0
   -6.5251   11.9300  -10.2320 H   0  0  0  0  0  0  0  0  0  0  0  0
  -11.7831   10.9189   -9.8742 H   0  0  0  0  0  0  0  0  0  0  0  0
  -11.6088    9.6608   -8.3811 H   0  0  0  0  0  0  0  0  0  0  0  0
  -12.4132    9.0752  -10.0658 H   0  0  0  0  0  0  0  0  0  0  0  0
   -0.9660   18.5279   -4.9668 H   0  0  0  0  0  0  0  0  0  0  0  0
    0.7303   18.7019   -5.9331 H   0  0  0  0  0  0  0  0  0  0  0  0
    0.7100   17.9571   -4.1260 H   0  0  0  0  0  0  0  0  0  0  0  0
   -2.5937   14.9081   -6.6691 H   0  0  0  0  0  0  0  0  0  0  0  0
   -8.4916   10.7729   -1.0667 H   0  0  0  0  0  0  0  0  0  0  0  0
    1.9269   16.5606   -6.4620 H   0  0  0  0  0  0  0  0  0  0  0  0
   -5.1144   13.1009   -8.0373 H   0  0  0  0  0  0  0  0  0  0  0  0
  2  1  1  6  0  0  0
  2  3  1  0  0  0  0
  2  7  1  0  0  0  0
  2 43  1  0  0  0  0
  3  4  1  0  0  0  0
  3 48  1  0  0  0  0
  3 49  1  0  0  0  0
  4  5  1  0  0  0  0
  4 50  1  0  0  0  0
  4 51  1  0  0  0  0
  5  6  1  0  0  0  0
  5  8  1  0  0  0  0
  5 87  1  1  0  0  0
  6  7  1  0  0  0  0
  6 52  1  0  0  0  0
  6 53  1  0  0  0  0
  7 54  1  0  0  0  0
  7 55  1  0  0  0  0
  8  9  1  0  0  0  0
  8 56  1  0  0  0  0
  8 57  1  0  0  0  0
  9 10  1  0  0  0  0
  9 46  1  0  0  0  0
  9 47  1  6  0  0  0
 10 11  1  0  0  0  0
 10 58  1  0  0  0  0
 10 59  1  0  0  0  0
 11 12  1  0  0  0  0
 11 15  1  0  0  0  0
 12 13  2  0  0  0  0
 12 38  1  0  0  0  0
 13 14  1  0  0  0  0
 13 35  1  0  0  0  0
 14 15  2  0  0  0  0
 14 16  1  0  0  0  0
 16 17  2  0  0  0  0
 16 21  1  0  0  0  0
 17 18  1  0  0  0  0
 17 60  1  0  0  0  0
 18 19  2  0  0  0  0
 18 61  1  0  0  0  0
 19 20  1  0  0  0  0
 19 31  1  0  0  0  0
 20 21  2  0  0  0  0
 20 22  1  0  0  0  0
 21 62  1  0  0  0  0
 22 23  1  0  0  0  0
 23 24  1  0  0  0  0
 23 63  1  0  0  0  0
 23 64  1  0  0  0  0
 24 25  1  0  0  0  0
 24 65  1  0  0  0  0
 24 66  1  0  0  0  0
 25 26  1  0  0  0  0
 25 30  1  0  0  0  0
 26 27  1  0  0  0  0
 26 67  1  0  0  0  0
 26 68  1  0  0  0  0
 27 28  1  0  0  0  0
 27 69  1  0  0  0  0
 27 70  1  0  0  0  0
 28 29  1  0  0  0  0
 28 44  1  0  0  0  0
 28 45  1  0  0  0  0
 29 30  1  0  0  0  0
 29 71  1  0  0  0  0
 29 72  1  0  0  0  0
 30 73  1  0  0  0  0
 30 74  1  0  0  0  0
 31 32  1  0  0  0  0
 31 33  1  0  0  0  0
 31 34  1  0  0  0  0
 35 36  1  0  0  0  0
 35 75  1  0  0  0  0
 35 76  1  0  0  0  0
 36 37  1  0  0  0  0
 36 39  1  0  0  0  0
 37 38  1  0  0  0  0
 37 77  1  0  0  0  0
 37 78  1  0  0  0  0
 38 79  1  0  0  0  0
 38 80  1  0  0  0  0
 39 40  2  0  0  0  0
 39 41  2  0  0  0  0
 39 42  1  0  0  0  0
 42 81  1  0  0  0  0
 42 82  1  0  0  0  0
 42 83  1  0  0  0  0
 43 84  1  0  0  0  0
 43 85  1  0  0  0  0
 43 86  1  0  0  0  0
 46 90  1  0  0  0  0
 88 25  1  0  0  0  0
 89  1  1  0  0  0  0
M  CHG  2   5   1  25   1
M  END
$$$$
