CatS_252
 OpenBabel05281909343D

 90 94  0  0  1  0  0  0  0  0999 V2000
   -0.1247   16.1699   -5.7826 C   0  0  0  0  0  0  0  0  0  0  0  0
   -1.1910   15.5857   -4.8382 C   0  0  0  0  0  0  0  0  0  0  0  0
   -1.6669   14.2211   -5.3740 C   0  0  0  0  0  0  0  0  0  0  0  0
   -2.2338   14.3439   -6.7309 N   0  3  0  0  0  0  0  0  0  0  0  0
   -1.2232   14.8908   -7.6591 C   0  0  0  0  0  0  0  0  0  0  0  0
   -0.7220   16.2749   -7.1988 C   0  0  0  0  0  0  0  0  0  0  0  0
   -2.7049   13.0260   -7.1973 C   0  0  0  0  0  0  0  0  0  0  0  0
   -3.4129   13.0568   -8.5710 C   0  0  1  0  0  0  0  0  0  0  0  0
   -3.3396   11.6548   -9.2003 C   0  0  0  0  0  0  0  0  0  0  0  0
   -4.3390   10.6959   -8.7085 N   0  0  0  0  0  0  0  0  0  0  0  0
   -5.5308   10.3252   -9.2411 C   0  0  0  0  0  0  0  0  0  0  0  0
   -6.2053    9.4819   -8.4578 C   0  0  0  0  0  0  0  0  0  0  0  0
   -5.3399    9.2808   -7.3580 C   0  0  0  0  0  0  0  0  0  0  0  0
   -4.2648   10.0228   -7.5357 N   0  0  0  0  0  0  0  0  0  0  0  0
   -5.5281    8.4130   -6.2058 C   0  0  0  0  0  0  0  0  0  0  0  0
   -4.4676    7.7389   -5.6280 C   0  0  0  0  0  0  0  0  0  0  0  0
   -4.6601    6.9418   -4.5281 C   0  0  0  0  0  0  0  0  0  0  0  0
   -5.9102    6.7698   -3.9696 C   0  0  0  0  0  0  0  0  0  0  0  0
   -6.9758    7.4399   -4.5579 C   0  0  0  0  0  0  0  0  0  0  0  0
   -6.7840    8.2539   -5.6505 C   0  0  0  0  0  0  0  0  0  0  0  0
   -8.6623    7.2887   -3.9529 S   0  0  0  0  0  0  0  0  0  0  0  0
   -9.2128    8.9472   -3.4728 C   0  0  0  0  0  0  0  0  0  0  0  0
   -8.0196    9.8151   -3.0206 C   0  0  0  0  0  0  0  0  0  0  0  0
   -8.4072   10.8677   -2.0650 N   0  3  2  0  0  0  0  0  0  0  0  0
   -9.7688   11.3442   -2.3740 C   0  0  0  0  0  0  0  0  0  0  0  0
  -10.2311   12.4112   -1.3619 C   0  0  0  0  0  0  0  0  0  0  0  0
   -9.2443   13.5920   -1.3597 C   0  0  2  0  0  0  0  0  0  0  0  0
   -7.8201   13.0741   -1.0855 C   0  0  0  0  0  0  0  0  0  0  0  0
   -7.4529   11.9948   -2.1228 C   0  0  0  0  0  0  0  0  0  0  0  0
   -5.9448    5.8565   -2.7420 C   0  0  0  0  0  0  0  0  0  0  0  0
   -4.9471    4.8880   -2.7810 F   0  0  0  0  0  0  0  0  0  0  0  0
   -7.1418    5.1657   -2.5932 F   0  0  0  0  0  0  0  0  0  0  0  0
   -5.7380    6.5909   -1.5780 F   0  0  0  0  0  0  0  0  0  0  0  0
   -7.5838    8.9489   -8.8238 C   0  0  0  0  0  0  0  0  0  0  0  0
   -8.2561    9.7461   -9.8750 N   0  0  0  0  0  0  0  0  0  0  0  0
   -7.3181    9.9450  -11.0010 C   0  0  0  0  0  0  0  0  0  0  0  0
   -6.0939   10.7931  -10.5728 C   0  0  0  0  0  0  0  0  0  0  0  0
   -9.7910    9.3104  -10.1695 S   0  0  0  0  0  0  0  0  0  0  0  0
   -9.8657    7.9421   -9.7664 O   0  0  0  0  0  0  0  0  0  0  0  0
  -10.0689    9.5801  -11.5448 O   0  0  0  0  0  0  0  0  0  0  0  0
  -10.9189   10.2893   -9.1312 C   0  0  0  0  0  0  0  0  0  0  0  0
   -9.5604   14.3840   -0.5174 C   0  0  0  0  0  0  0  0  0  0  0  0
   -9.2640   14.1289   -2.4329 O   0  0  0  0  0  0  0  0  0  0  0  0
   -4.5658   13.3630   -8.4239 O   0  0  0  0  0  0  0  0  0  0  0  0
   -2.8849   13.8322   -9.3199 H   0  0  0  0  0  0  0  0  0  0  0  0
    0.8140   15.4249   -5.8329 H   0  0  0  0  0  0  0  0  0  0  0  0
   -0.7251   15.4539   -3.7392 H   0  0  0  0  0  0  0  0  0  0  0  0
   -2.1307   16.3300   -4.7861 H   0  0  0  0  0  0  0  0  0  0  0  0
   -2.5056   13.8239   -4.6130 H   0  0  0  0  0  0  0  0  0  0  0  0
   -0.7428   13.4539   -5.3880 H   0  0  0  0  0  0  0  0  0  0  0  0
   -1.7000   15.0321   -8.7497 H   0  0  0  0  0  0  0  0  0  0  0  0
   -0.2800   14.1497   -7.7231 H   0  0  0  0  0  0  0  0  0  0  0  0
    0.1172   16.6709   -7.9592 H   0  0  0  0  0  0  0  0  0  0  0  0
   -1.6448   17.0419   -7.1909 H   0  0  0  0  0  0  0  0  0  0  0  0
   -3.5302   12.6211   -6.4257 H   0  0  0  0  0  0  0  0  0  0  0  0
   -1.8131   12.2240   -7.2247 H   0  0  0  0  0  0  0  0  0  0  0  0
   -3.4749   11.7686  -10.3870 H   0  0  0  0  0  0  0  0  0  0  0  0
   -2.2548   11.1928   -8.9839 H   0  0  0  0  0  0  0  0  0  0  0  0
   -3.5486    7.8381   -6.0091 H   0  0  0  0  0  0  0  0  0  0  0  0
   -3.8720    6.4759   -4.1253 H   0  0  0  0  0  0  0  0  0  0  0  0
   -7.5648    8.7320   -6.0520 H   0  0  0  0  0  0  0  0  0  0  0  0
   -9.7310    9.4500   -4.4319 H   0  0  0  0  0  0  0  0  0  0  0  0
  -10.0247    8.8692   -2.5915 H   0  0  0  0  0  0  0  0  0  0  0  0
   -7.5947   10.3441   -4.0120 H   0  0  0  0  0  0  0  0  0  0  0  0
   -7.1413    9.1329   -2.5672 H   0  0  0  0  0  0  0  0  0  0  0  0
  -10.5487   10.4349   -2.3162 H   0  0  0  0  0  0  0  0  0  0  0  0
   -9.7887   11.8011   -3.4838 H   0  0  0  0  0  0  0  0  0  0  0  0
  -10.2648   11.9164   -0.2699 H   0  0  0  0  0  0  0  0  0  0  0  0
  -11.3255   12.8012   -1.6600 H   0  0  0  0  0  0  0  0  0  0  0  0
   -7.0419   13.9838   -1.1571 H   0  0  0  0  0  0  0  0  0  0  0  0
   -7.7742   12.5992    0.0151 H   0  0  0  0  0  0  0  0  0  0  0  0
   -7.4591   12.4814   -3.2211 H   0  0  0  0  0  0  0  0  0  0  0  0
   -6.3403   11.6217   -1.8750 H   0  0  0  0  0  0  0  0  0  0  0  0
   -7.4863    7.8079   -9.1818 H   0  0  0  0  0  0  0  0  0  0  0  0
   -8.2800    8.9949   -7.8458 H   0  0  0  0  0  0  0  0  0  0  0  0
   -6.9427    8.8781  -11.4007 H   0  0  0  0  0  0  0  0  0  0  0  0
   -7.8697   10.5228  -11.8949 H   0  0  0  0  0  0  0  0  0  0  0  0
   -6.4274   11.9412  -10.4688 H   0  0  0  0  0  0  0  0  0  0  0  0
   -5.2559   10.6981  -11.4261 H   0  0  0  0  0  0  0  0  0  0  0  0
  -11.0141   11.4132   -9.5421 H   0  0  0  0  0  0  0  0  0  0  0  0
  -12.0133    9.7993   -9.1412 H   0  0  0  0  0  0  0  0  0  0  0  0
  -10.5201   10.3165   -7.9994 H   0  0  0  0  0  0  0  0  0  0  0  0
   -2.9462   14.9135   -6.7056 H   0  0  0  0  0  0  0  0  0  0  0  0
   -8.4054   10.5166   -1.2234 H   0  0  0  0  0  0  0  0  0  0  0  0
    0.2258   17.2511   -5.3976 H   0  0  0  0  0  0  0  0  0  0  0  0
  -10.6679   14.8130   -0.7017 H   0  0  0  0  0  0  0  0  0  0  0  0
   -9.5369   13.9349    0.5971 H   0  0  0  0  0  0  0  0  0  0  0  0
   -8.8303   15.3386   -0.5348 H   0  0  0  0  0  0  0  0  0  0  0  0
  -10.2007   14.3668   -2.7146 H   0  0  0  0  0  0  0  0  0  0  0  0
   -5.0477   13.4100   -9.3057 H   0  0  0  0  0  0  0  0  0  0  0  0
  1  2  1  0  0  0  0
  1  6  1  0  0  0  0
  1 46  1  0  0  0  0
  2  3  1  0  0  0  0
  2 47  1  0  0  0  0
  2 48  1  0  0  0  0
  3  4  1  0  0  0  0
  3 49  1  0  0  0  0
  3 50  1  0  0  0  0
  4  5  1  0  0  0  0
  4  7  1  0  0  0  0
  5  6  1  0  0  0  0
  5 51  1  0  0  0  0
  5 52  1  0  0  0  0
  6 53  1  0  0  0  0
  6 54  1  0  0  0  0
  7  8  1  0  0  0  0
  7 55  1  0  0  0  0
  7 56  1  0  0  0  0
  8  9  1  0  0  0  0
  8 44  1  0  0  0  0
  8 45  1  6  0  0  0
  9 10  1  0  0  0  0
  9 57  1  0  0  0  0
  9 58  1  0  0  0  0
 10 11  1  0  0  0  0
 10 14  1  0  0  0  0
 11 12  2  0  0  0  0
 11 37  1  0  0  0  0
 12 13  1  0  0  0  0
 12 34  1  0  0  0  0
 13 14  2  0  0  0  0
 13 15  1  0  0  0  0
 15 16  2  0  0  0  0
 15 20  1  0  0  0  0
 16 17  1  0  0  0  0
 16 59  1  0  0  0  0
 17 18  2  0  0  0  0
 17 60  1  0  0  0  0
 18 19  1  0  0  0  0
 18 30  1  0  0  0  0
 19 20  2  0  0  0  0
 19 21  1  0  0  0  0
 20 61  1  0  0  0  0
 21 22  1  0  0  0  0
 22 23  1  0  0  0  0
 22 62  1  0  0  0  0
 22 63  1  0  0  0  0
 23 24  1  0  0  0  0
 23 64  1  0  0  0  0
 23 65  1  0  0  0  0
 24 25  1  0  0  0  0
 24 29  1  0  0  0  0
 24 84  1  1  0  0  0
 25 26  1  0  0  0  0
 25 66  1  0  0  0  0
 25 67  1  0  0  0  0
 26 27  1  0  0  0  0
 26 68  1  0  0  0  0
 26 69  1  0  0  0  0
 27 28  1  0  0  0  0
 27 42  1  0  0  0  0
 27 43  1  6  0  0  0
 28 29  1  0  0  0  0
 28 70  1  0  0  0  0
 28 71  1  0  0  0  0
 29 72  1  0  0  0  0
 29 73  1  0  0  0  0
 30 31  1  0  0  0  0
 30 32  1  0  0  0  0
 30 33  1  0  0  0  0
 34 35  1  0  0  0  0
 34 74  1  0  0  0  0
 34 75  1  0  0  0  0
 35 36  1  0  0  0  0
 35 38  1  0  0  0  0
 36 37  1  0  0  0  0
 36 76  1  0  0  0  0
 36 77  1  0  0  0  0
 37 78  1  0  0  0  0
 37 79  1  0  0  0  0
 38 39  2  0  0  0  0
 38 40  2  0  0  0  0
 38 41  1  0  0  0  0
 41 80  1  0  0  0  0
 41 81  1  0  0  0  0
 41 82  1  0  0  0  0
 44 90  1  0  0  0  0
 83  4  1  0  0  0  0
 85  1  1  0  0  0  0
 86 42  1  0  0  0  0
 87 42  1  0  0  0  0
 88 42  1  0  0  0  0
 89 43  1  0  0  0  0
M  CHG  2   4   1  24   1
M  END
$$$$
