lig_CHEMBL3402751_2100_11
  -OEChem-01272013113D

 43 46  0     0  0  0  0  0  0999 V2000
   25.4600   34.0600   51.8700 C   0  0  0  0  0  0  0  0  0  0  0  0
   24.2500   33.5700   52.6100 C   0  0  0  0  0  0  0  0  0  0  0  0
   23.0500   33.1200   52.0700 C   0  0  0  0  0  0  0  0  0  0  0  0
   21.9600   32.7300   53.3500 S   0  0  0  0  0  0  0  0  0  0  0  0
   23.2000   33.1700   54.4900 C   0  0  0  0  0  0  0  0  0  0  0  0
   24.3200   33.5700   53.9300 N   0  0  0  0  0  0  0  0  0  0  0  0
   23.0100   32.9900   55.9700 C   0  0  0  0  0  0  0  0  0  0  0  0
   24.0900   33.1200   56.8500 C   0  0  0  0  0  0  0  0  0  0  0  0
   23.9500   32.8000   58.2000 C   0  0  0  0  0  0  0  0  0  0  0  0
   22.7200   32.3500   58.6900 C   0  0  0  0  0  0  0  0  0  0  0  0
   21.6200   32.2500   57.8300 C   0  0  0  0  0  0  0  0  0  0  0  0
   20.2600   31.7900   58.3500 C   0  0  0  0  0  0  0  0  0  0  0  0
   19.9400   30.4000   57.9500 N   0  0  0  0  0  0  0  0  0  0  0  0
   19.4200   30.2300   56.6700 N   0  0  0  0  0  0  0  0  0  0  0  0
   19.0800   29.0700   56.2000 C   0  0  0  0  0  0  0  0  0  0  0  0
   19.3200   27.9300   57.0700 C   0  0  0  0  0  0  0  0  0  0  0  0
   19.8500   28.0900   58.3000 C   0  0  0  0  0  0  0  0  0  0  0  0
   20.2000   29.3900   58.8400 C   0  0  0  0  0  0  0  0  0  0  0  0
   20.6500   29.5300   59.9800 O   0  0  0  0  0  0  0  0  0  0  0  0
   18.4700   28.9100   54.8500 C   0  0  0  0  0  0  0  0  0  0  0  0
   18.2400   27.6400   54.2800 C   0  0  0  0  0  0  0  0  0  0  0  0
   17.5900   27.5200   53.0500 C   0  0  0  0  0  0  0  0  0  0  0  0
   17.3600   26.2900   52.5300 F   0  0  0  0  0  0  0  0  0  0  0  0
   17.1800   28.6500   52.3600 C   0  0  0  0  0  0  0  0  0  0  0  0
   17.4100   29.9200   52.9000 C   0  0  0  0  0  0  0  0  0  0  0  0
   17.0000   31.0200   52.2400 F   0  0  0  0  0  0  0  0  0  0  0  0
   18.0500   30.0400   54.1300 C   0  0  0  0  0  0  0  0  0  0  0  0
   21.7700   32.5900   56.4900 C   0  0  0  0  0  0  0  0  0  0  0  0
   25.6000   35.1200   52.0700 H   0  0  0  0  0  0  0  0  0  0  0  0
   25.3500   33.9600   50.7900 H   0  0  0  0  0  0  0  0  0  0  0  0
   26.3600   33.5300   52.1500 H   0  0  0  0  0  0  0  0  0  0  0  0
   22.7600   33.0400   51.0300 H   0  0  0  0  0  0  0  0  0  0  0  0
   25.0600   33.4300   56.4900 H   0  0  0  0  0  0  0  0  0  0  0  0
   24.8000   32.8800   58.8600 H   0  0  0  0  0  0  0  0  0  0  0  0
   22.6300   32.0600   59.7200 H   0  0  0  0  0  0  0  0  0  0  0  0
   20.2100   31.9300   59.4300 H   0  0  0  0  0  0  0  0  0  0  0  0
   19.5000   32.4500   57.9500 H   0  0  0  0  0  0  0  0  0  0  0  0
   19.0900   26.9200   56.7600 H   0  0  0  0  0  0  0  0  0  0  0  0
   20.0200   27.2200   58.9200 H   0  0  0  0  0  0  0  0  0  0  0  0
   18.5400   26.7300   54.7700 H   0  0  0  0  0  0  0  0  0  0  0  0
   16.6800   28.5500   51.4100 H   0  0  0  0  0  0  0  0  0  0  0  0
   18.1900   31.0400   54.5300 H   0  0  0  0  0  0  0  0  0  0  0  0
   20.9100   32.4900   55.8400 H   0  0  0  0  0  0  0  0  0  0  0  0
  1 30  1  0  0  0  0
  3 32  1  0  0  0  0
 24 41  1  0  0  0  0
  1 29  1  0  0  0  0
  1 31  1  0  0  0  0
  1  2  1  0  0  0  0
  2  3  2  0  0  0  0
  3  4  1  0  0  0  0
 25 26  1  0  0  0  0
 24 25  2  0  0  0  0
 22 24  1  0  0  0  0
 22 23  1  0  0  0  0
  2  6  1  0  0  0  0
 25 27  1  0  0  0  0
 21 22  2  0  0  0  0
  4  5  1  0  0  0  0
  5  6  2  0  0  0  0
 27 42  1  0  0  0  0
 20 27  2  0  0  0  0
 21 40  1  0  0  0  0
 20 21  1  0  0  0  0
  5  7  1  0  0  0  0
 15 20  1  0  0  0  0
 28 43  1  0  0  0  0
  7 28  2  0  0  0  0
  7  8  1  0  0  0  0
 14 15  2  0  0  0  0
 15 16  1  0  0  0  0
 11 28  1  0  0  0  0
  8 33  1  0  0  0  0
 13 14  1  0  0  0  0
 16 38  1  0  0  0  0
  8  9  2  0  0  0  0
 16 17  2  0  0  0  0
 11 12  1  0  0  0  0
 10 11  2  0  0  0  0
 12 13  1  0  0  0  0
 13 18  1  0  0  0  0
 12 37  1  0  0  0  0
  9 10  1  0  0  0  0
  9 34  1  0  0  0  0
 17 18  1  0  0  0  0
 17 39  1  0  0  0  0
 12 36  1  0  0  0  0
 10 35  1  0  0  0  0
 18 19  2  0  0  0  0
M  END
$$$$
