lig_23472
     RDKit          3D

 42 44  0  0  0  0  0  0  0  0999 V2000
   39.3400   17.3500   12.2700 O   0  0  0  0  0  0  0  0  0  0  0  0
   40.4900   16.9300   12.4900 C   0  0  0  0  0  0  0  0  0  0  0  0
   41.4400   17.2200   11.7500 O   0  0  0  0  0  0  0  0  0  0  0  0
   40.7800   16.0500   13.6800 C   0  0  0  0  0  0  0  0  0  0  0  0
   42.1200   15.7300   13.6900 O   0  0  0  0  0  0  0  0  0  0  0  0
   42.5100   14.9200   14.7400 C   0  0  0  0  0  0  0  0  0  0  0  0
   42.1900   13.5700   14.8700 C   0  0  0  0  0  0  0  0  0  0  0  0
   41.0529   12.6415   13.5347 Br  0  0  0  0  0  0  0  0  0  0  0  0
   42.6200   12.9300   16.0200 C   0  0  0  0  0  0  0  0  0  0  0  0
   42.4000   11.5200   16.4700 C   0  0  0  0  0  0  0  0  0  0  0  0
   43.4700   10.7700   16.9400 C   0  0  0  0  0  0  0  0  0  0  0  0
   43.2600    9.4600   17.3600 C   0  0  0  0  0  0  0  0  0  0  0  0
   41.9900    8.9100   17.3200 C   0  0  0  0  0  0  0  0  0  0  0  0
   40.9200    9.6600   16.8500 C   0  0  0  0  0  0  0  0  0  0  0  0
   39.5800    9.0900   16.8000 N   0  0  0  0  0  0  0  0  0  0  0  0
   39.3800    7.3700   16.6200 S   0  0  0  0  0  0  0  0  0  0  0  0
   40.6300    6.7300   17.0300 O   0  0  0  0  0  0  0  0  0  0  0  0
   38.0900    7.0000   17.2200 O   0  0  0  0  0  0  0  0  0  0  0  0
   39.2200    7.1600   14.8600 C   0  0  0  0  0  0  0  0  0  0  0  0
   38.0000    7.3800   14.2400 C   0  0  0  0  0  0  0  0  0  0  0  0
   37.8600    7.2200   12.8600 C   0  0  0  0  0  0  0  0  0  0  0  0
   38.9700    6.8400   12.1100 C   0  0  0  0  0  0  0  0  0  0  0  0
   38.8500    6.6900   10.7700 F   0  0  0  0  0  0  0  0  0  0  0  0
   40.1900    6.6200   12.7300 C   0  0  0  0  0  0  0  0  0  0  0  0
   40.3300    6.7800   14.1000 C   0  0  0  0  0  0  0  0  0  0  0  0
   41.1200   10.9700   16.4300 C   0  0  0  0  0  0  0  0  0  0  0  0
   43.6400   14.0300   16.9200 S   0  0  0  0  0  0  0  0  0  0  0  0
   43.3700   15.3200   15.7700 C   0  0  0  0  0  0  0  0  0  0  0  0
   44.0500   16.6100   16.0400 C   0  0  0  0  0  0  0  0  0  0  0  0
   43.8800   17.5600   15.2400 O   0  0  0  0  0  0  0  0  0  0  0  0
   44.7800   16.7200   17.0500 O   0  0  0  0  0  0  0  0  0  0  0  0
   40.5200   16.5800   14.5900 H   0  0  0  0  0  0  0  0  0  0  0  0
   40.1900   15.1400   13.6000 H   0  0  0  0  0  0  0  0  0  0  0  0
   44.4600   11.1900   16.9700 H   0  0  0  0  0  0  0  0  0  0  0  0
   44.0900    8.8700   17.7300 H   0  0  0  0  0  0  0  0  0  0  0  0
   41.8200    7.8900   17.6400 H   0  0  0  0  0  0  0  0  0  0  0  0
   38.7700    9.6800   16.8700 H   0  0  0  0  0  0  0  0  0  0  0  0
   37.1400    7.6800   14.8300 H   0  0  0  0  0  0  0  0  0  0  0  0
   36.9100    7.3900   12.3800 H   0  0  0  0  0  0  0  0  0  0  0  0
   41.0400    6.3300   12.1300 H   0  0  0  0  0  0  0  0  0  0  0  0
   41.2800    6.6100   14.5800 H   0  0  0  0  0  0  0  0  0  0  0  0
   40.2900   11.5600   16.0600 H   0  0  0  0  0  0  0  0  0  0  0  0
  1  2  2  0
  2  3  1  0
  2  4  1  0
  4  5  1  0
  4 32  1  0
  4 33  1  0
  5  6  1  0
  6  7  1  0
  6 28  2  0
  7  8  1  0
  7  9  2  0
  9 10  1  0
  9 27  1  0
 10 11  2  0
 10 26  1  0
 11 12  1  0
 11 34  1  0
 12 13  2  0
 12 35  1  0
 13 14  1  0
 13 36  1  0
 14 15  1  0
 14 26  2  0
 15 16  1  0
 15 37  1  0
 16 17  2  0
 16 18  2  0
 16 19  1  0
 19 20  2  0
 19 25  1  0
 20 21  1  0
 20 38  1  0
 21 22  2  0
 21 39  1  0
 22 23  1  0
 22 24  1  0
 24 25  2  0
 24 40  1  0
 25 41  1  0
 26 42  1  0
 27 28  1  0
 28 29  1  0
 29 30  2  0
 29 31  1  0
M  CHG  2   3  -1  31  -1
M  END
$$$$
