CatS_4
 OpenBabel05281909343D

 99104  0  0  1  0  0  0  0  0999 V2000
  -10.9970   10.1979   -9.3461 C   0  0  0  0  0  0  0  0  0  0  0  0
   -9.7851    9.2129  -10.2671 S   0  0  0  0  0  0  0  0  0  0  0  0
   -9.9959    9.4190  -11.6630 O   0  0  0  0  0  0  0  0  0  0  0  0
   -9.8810    7.8621   -9.8200 O   0  0  0  0  0  0  0  0  0  0  0  0
   -8.2900    9.7320   -9.8940 N   0  0  0  0  0  0  0  0  0  0  0  0
   -7.3301    9.9360  -10.9959 C   0  0  0  0  0  0  0  0  0  0  0  0
   -6.1139   10.7761  -10.5460 C   0  0  0  0  0  0  0  0  0  0  0  0
   -5.5401   10.2840   -9.2299 C   0  0  0  0  0  0  0  0  0  0  0  0
   -6.2329    9.4439   -8.4550 C   0  0  0  0  0  0  0  0  0  0  0  0
   -5.3499    9.1798   -7.3831 C   0  0  0  0  0  0  0  0  0  0  0  0
   -4.2500    9.8759   -7.5802 N   0  0  0  0  0  0  0  0  0  0  0  0
   -4.3220   10.6069   -8.7140 N   0  0  0  0  0  0  0  0  0  0  0  0
   -3.3271   11.6320   -9.0840 C   0  0  0  0  0  0  0  0  0  0  0  0
   -3.2839   13.0401   -8.4460 C   0  0  0  0  0  0  0  0  0  0  0  0
   -2.4381   13.0959   -7.1530 C   0  0  0  0  0  0  0  0  0  0  0  0
   -2.0979   14.4591   -6.7050 N   0  3  2  0  0  0  0  0  0  0  0  0
   -1.2270   15.1009   -7.7100 C   0  0  0  0  0  0  0  0  0  0  0  0
   -0.8160   16.5280   -7.2989 C   0  0  0  0  0  0  0  0  0  0  0  0
   -0.0801   16.4670   -5.9490 C   0  0  2  0  0  0  0  0  0  0  0  0
   -1.0201   15.8259   -4.9090 C   0  0  0  0  0  0  0  0  0  0  0  0
   -1.4170   14.4150   -5.3931 C   0  0  0  0  0  0  0  0  0  0  0  0
    0.4610   17.7950   -5.6210 N   0  0  0  0  0  0  0  0  0  0  0  0
   -0.2500   18.8220   -4.8500 C   0  0  0  0  0  0  0  0  0  0  0  0
    0.9060   19.7920   -4.5480 C   0  0  0  0  0  0  0  0  0  0  0  0
    1.9520   19.5631   -5.6510 C   0  0  0  0  0  0  0  0  0  0  0  0
    1.6649   18.1510   -6.0859 C   0  0  0  0  0  0  0  0  0  0  0  0
    2.4181   17.4531   -6.7520 O   0  0  0  0  0  0  0  0  0  0  0  0
   -5.5050    8.3121   -6.2260 C   0  0  0  0  0  0  0  0  0  0  0  0
   -4.4720    7.5810   -5.6691 C   0  0  0  0  0  0  0  0  0  0  0  0
   -4.6901    6.7700   -4.5810 C   0  0  0  0  0  0  0  0  0  0  0  0
   -5.9400    6.6590   -4.0049 C   0  0  0  0  0  0  0  0  0  0  0  0
   -6.9791    7.3929   -4.5591 C   0  0  0  0  0  0  0  0  0  0  0  0
   -6.7551    8.2031   -5.6490 C   0  0  0  0  0  0  0  0  0  0  0  0
   -8.6440    7.3560   -3.8701 S   0  0  0  0  0  0  0  0  0  0  0  0
   -9.1980    9.0142   -3.3711 C   0  0  0  0  0  0  0  0  0  0  0  0
   -8.0230    9.8569   -2.8330 C   0  0  0  0  0  0  0  0  0  0  0  0
   -8.4121   10.9009   -1.8661 N   0  3  2  0  0  0  0  0  0  0  0  0
   -9.7979   11.3341   -2.1359 C   0  0  0  0  0  0  0  0  0  0  0  0
  -10.2620   12.4439   -1.1739 C   0  0  0  0  0  0  0  0  0  0  0  0
   -9.3081   13.6430   -1.3131 C   0  0  2  0  0  0  0  0  0  0  0  0
   -7.8791   13.1760   -0.9770 C   0  0  0  0  0  0  0  0  0  0  0  0
   -7.4901   12.0550   -1.9599 C   0  0  0  0  0  0  0  0  0  0  0  0
   -9.7419   14.7920   -0.3920 C   0  0  0  0  0  0  0  0  0  0  0  0
  -10.1831   14.3040    0.8331 F   0  0  0  0  0  0  0  0  0  0  0  0
  -10.7769   15.5170   -0.9700 F   0  0  0  0  0  0  0  0  0  0  0  0
   -8.6781   15.6589   -0.1641 F   0  0  0  0  0  0  0  0  0  0  0  0
   -6.0731    5.7410   -2.7941 C   0  0  0  0  0  0  0  0  0  0  0  0
   -5.9591    6.4560   -1.6072 F   0  0  0  0  0  0  0  0  0  0  0  0
   -7.3169    5.1200   -2.7791 F   0  0  0  0  0  0  0  0  0  0  0  0
   -5.1051    4.7410   -2.7562 F   0  0  0  0  0  0  0  0  0  0  0  0
   -7.6290    8.9510   -8.8222 C   0  0  0  0  0  0  0  0  0  0  0  0
  -10.6850   10.2440   -8.1880 H   0  0  0  0  0  0  0  0  0  0  0  0
  -11.0681   11.3060   -9.8020 H   0  0  0  0  0  0  0  0  0  0  0  0
  -12.0720    9.6749   -9.4531 H   0  0  0  0  0  0  0  0  0  0  0  0
   -7.8451   10.5340  -11.8980 H   0  0  0  0  0  0  0  0  0  0  0  0
   -6.9591    8.8631  -11.3901 H   0  0  0  0  0  0  0  0  0  0  0  0
   -5.2970   10.6420  -11.4100 H   0  0  0  0  0  0  0  0  0  0  0  0
   -6.4440   11.9240  -10.4420 H   0  0  0  0  0  0  0  0  0  0  0  0
   -3.5481   11.8161  -10.2502 H   0  0  0  0  0  0  0  0  0  0  0  0
   -2.2350   11.1359   -9.0329 H   0  0  0  0  0  0  0  0  0  0  0  0
   -4.4030   13.4249   -8.2470 H   0  0  0  0  0  0  0  0  0  0  0  0
   -2.7650   13.7739   -9.2419 H   0  0  0  0  0  0  0  0  0  0  0  0
   -1.4110   12.5121   -7.3600 H   0  0  0  0  0  0  0  0  0  0  0  0
   -3.0070   12.5260   -6.2619 H   0  0  0  0  0  0  0  0  0  0  0  0
   -1.7930   15.1791   -8.7659 H   0  0  0  0  0  0  0  0  0  0  0  0
   -0.2362   14.4362   -7.8419 H   0  0  0  0  0  0  0  0  0  0  0  0
   -1.7919   17.2180   -7.1982 H   0  0  0  0  0  0  0  0  0  0  0  0
   -0.0878   16.9870   -8.1350 H   0  0  0  0  0  0  0  0  0  0  0  0
    0.8601   15.7339   -6.0879 H   0  0  0  0  0  0  0  0  0  0  0  0
   -0.4561   15.7470   -3.8531 H   0  0  0  0  0  0  0  0  0  0  0  0
   -2.0039   16.5020   -4.7889 H   0  0  0  0  0  0  0  0  0  0  0  0
   -0.4120   13.7651   -5.4800 H   0  0  0  0  0  0  0  0  0  0  0  0
   -2.1251   13.9151   -4.5640 H   0  0  0  0  0  0  0  0  0  0  0  0
   -1.0761   19.3511   -5.5419 H   0  0  0  0  0  0  0  0  0  0  0  0
   -0.7361   18.3830   -3.8440 H   0  0  0  0  0  0  0  0  0  0  0  0
    1.3929   19.4982   -3.4909 H   0  0  0  0  0  0  0  0  0  0  0  0
    0.5311   20.9319   -4.5260 H   0  0  0  0  0  0  0  0  0  0  0  0
    3.0690   19.6830   -5.2280 H   0  0  0  0  0  0  0  0  0  0  0  0
    1.7589   20.3110   -6.5700 H   0  0  0  0  0  0  0  0  0  0  0  0
   -3.5570    7.6371   -6.0600 H   0  0  0  0  0  0  0  0  0  0  0  0
   -3.9221    6.2539   -4.2001 H   0  0  0  0  0  0  0  0  0  0  0  0
   -7.5110    8.7330   -6.0290 H   0  0  0  0  0  0  0  0  0  0  0  0
   -9.7119    9.5768   -4.2980 H   0  0  0  0  0  0  0  0  0  0  0  0
  -10.0330    8.8710   -2.5231 H   0  0  0  0  0  0  0  0  0  0  0  0
   -7.5310   10.3630   -3.8040 H   0  0  0  0  0  0  0  0  0  0  0  0
   -7.1999    9.1280   -2.3530 H   0  0  0  0  0  0  0  0  0  0  0  0
   -9.8611   11.7441   -3.2610 H   0  0  0  0  0  0  0  0  0  0  0  0
  -10.5521   10.4090   -2.0101 H   0  0  0  0  0  0  0  0  0  0  0  0
  -11.3779   12.7790   -1.4600 H   0  0  0  0  0  0  0  0  0  0  0  0
  -10.2449   12.0331   -0.0470 H   0  0  0  0  0  0  0  0  0  0  0  0
   -9.3360   14.0270   -2.4500 H   0  0  0  0  0  0  0  0  0  0  0  0
   -7.8451   12.7629    0.1500 H   0  0  0  0  0  0  0  0  0  0  0  0
   -7.1100   14.0881   -1.1010 H   0  0  0  0  0  0  0  0  0  0  0  0
   -6.3571   11.7320   -1.7380 H   0  0  0  0  0  0  0  0  0  0  0  0
   -7.5431   12.5219   -3.0650 H   0  0  0  0  0  0  0  0  0  0  0  0
   -8.3500    9.0099   -7.8670 H   0  0  0  0  0  0  0  0  0  0  0  0
   -7.5389    7.8091   -9.1812 H   0  0  0  0  0  0  0  0  0  0  0  0
   -2.8649   14.9435   -6.6210 H   0  0  0  0  0  0  0  0  0  0  0  0
   -8.3772   10.5653   -1.0196 H   0  0  0  0  0  0  0  0  0  0  0  0
  1  2  1  0  0  0  0
  1 52  1  0  0  0  0
  1 53  1  0  0  0  0
  1 54  1  0  0  0  0
  2  3  2  0  0  0  0
  2  4  2  0  0  0  0
  2  5  1  0  0  0  0
  5  6  1  0  0  0  0
  5 51  1  0  0  0  0
  6  7  1  0  0  0  0
  6 55  1  0  0  0  0
  6 56  1  0  0  0  0
  7  8  1  0  0  0  0
  7 57  1  0  0  0  0
  7 58  1  0  0  0  0
  8  9  2  0  0  0  0
  8 12  1  0  0  0  0
  9 10  1  0  0  0  0
  9 51  1  0  0  0  0
 10 11  2  0  0  0  0
 10 28  1  0  0  0  0
 11 12  1  0  0  0  0
 12 13  1  0  0  0  0
 13 14  1  0  0  0  0
 13 59  1  0  0  0  0
 13 60  1  0  0  0  0
 14 15  1  0  0  0  0
 14 61  1  0  0  0  0
 14 62  1  0  0  0  0
 15 16  1  0  0  0  0
 15 63  1  0  0  0  0
 15 64  1  0  0  0  0
 16 17  1  0  0  0  0
 16 21  1  0  0  0  0
 16 98  1  1  0  0  0
 17 18  1  0  0  0  0
 17 65  1  0  0  0  0
 17 66  1  0  0  0  0
 18 19  1  0  0  0  0
 18 67  1  0  0  0  0
 18 68  1  0  0  0  0
 19 20  1  0  0  0  0
 19 22  1  0  0  0  0
 19 69  1  6  0  0  0
 20 21  1  0  0  0  0
 20 70  1  0  0  0  0
 20 71  1  0  0  0  0
 21 72  1  0  0  0  0
 21 73  1  0  0  0  0
 22 23  1  0  0  0  0
 22 26  1  0  0  0  0
 23 24  1  0  0  0  0
 23 74  1  0  0  0  0
 23 75  1  0  0  0  0
 24 25  1  0  0  0  0
 24 76  1  0  0  0  0
 24 77  1  0  0  0  0
 25 26  1  0  0  0  0
 25 78  1  0  0  0  0
 25 79  1  0  0  0  0
 26 27  2  0  0  0  0
 28 29  2  0  0  0  0
 28 33  1  0  0  0  0
 29 30  1  0  0  0  0
 29 80  1  0  0  0  0
 30 31  2  0  0  0  0
 30 81  1  0  0  0  0
 31 32  1  0  0  0  0
 31 47  1  0  0  0  0
 32 33  2  0  0  0  0
 32 34  1  0  0  0  0
 33 82  1  0  0  0  0
 34 35  1  0  0  0  0
 35 36  1  0  0  0  0
 35 83  1  0  0  0  0
 35 84  1  0  0  0  0
 36 37  1  0  0  0  0
 36 85  1  0  0  0  0
 36 86  1  0  0  0  0
 37 38  1  0  0  0  0
 37 42  1  0  0  0  0
 37 99  1  1  0  0  0
 38 39  1  0  0  0  0
 38 87  1  0  0  0  0
 38 88  1  0  0  0  0
 39 40  1  0  0  0  0
 39 89  1  0  0  0  0
 39 90  1  0  0  0  0
 40 41  1  0  0  0  0
 40 43  1  0  0  0  0
 40 91  1  6  0  0  0
 41 42  1  0  0  0  0
 41 92  1  0  0  0  0
 41 93  1  0  0  0  0
 42 94  1  0  0  0  0
 42 95  1  0  0  0  0
 43 44  1  0  0  0  0
 43 45  1  0  0  0  0
 43 46  1  0  0  0  0
 47 48  1  0  0  0  0
 47 49  1  0  0  0  0
 47 50  1  0  0  0  0
 51 96  1  0  0  0  0
 51 97  1  0  0  0  0
M  CHG  2  16   1  37   1
M  END
$$$$
