lig_CHEMBL3402755_4200_15
  -OEChem-01272013113D

 45 48  0     0  0  0  0  0  0999 V2000
   24.9300   34.0400   50.8000 C   0  0  0  0  0  0  0  0  0  0  0  0
   24.3300   33.8000   52.1700 C   0  0  0  0  0  0  0  0  0  0  0  0
   23.0500   33.2700   52.3300 C   0  0  0  0  0  0  0  0  0  0  0  0
   22.6000   33.0400   53.6400 C   0  0  0  0  0  0  0  0  0  0  0  0
   23.4500   33.3600   54.7100 C   0  0  0  0  0  0  0  0  0  0  0  0
   24.6800   33.9200   54.4700 N   0  0  0  0  0  0  0  0  0  0  0  0
   25.1200   34.1300   53.2200 N   0  0  0  0  0  0  0  0  0  0  0  0
   23.1200   33.0300   56.1300 C   0  0  0  0  0  0  0  0  0  0  0  0
   24.1200   33.0300   57.1200 C   0  0  0  0  0  0  0  0  0  0  0  0
   23.8500   32.6400   58.4300 C   0  0  0  0  0  0  0  0  0  0  0  0
   22.5700   32.2200   58.7800 C   0  0  0  0  0  0  0  0  0  0  0  0
   21.5500   32.2100   57.8200 C   0  0  0  0  0  0  0  0  0  0  0  0
   20.1500   31.7500   58.2000 C   0  0  0  0  0  0  0  0  0  0  0  0
   19.8900   30.3400   57.8500 N   0  0  0  0  0  0  0  0  0  0  0  0
   19.4100   30.1100   56.5600 N   0  0  0  0  0  0  0  0  0  0  0  0
   19.1600   28.9200   56.1200 C   0  0  0  0  0  0  0  0  0  0  0  0
   19.4100   27.8200   57.0400 C   0  0  0  0  0  0  0  0  0  0  0  0
   19.8900   28.0400   58.2800 C   0  0  0  0  0  0  0  0  0  0  0  0
   20.1800   29.3600   58.7800 C   0  0  0  0  0  0  0  0  0  0  0  0
   20.6500   29.5500   59.9100 O   0  0  0  0  0  0  0  0  0  0  0  0
   18.6500   28.6600   54.7500 C   0  0  0  0  0  0  0  0  0  0  0  0
   17.9400   27.4800   54.4300 C   0  0  0  0  0  0  0  0  0  0  0  0
   17.4700   27.2600   53.1400 C   0  0  0  0  0  0  0  0  0  0  0  0
   16.7900   26.1300   52.8500 F   0  0  0  0  0  0  0  0  0  0  0  0
   17.7100   28.2000   52.1400 C   0  0  0  0  0  0  0  0  0  0  0  0
   18.4000   29.3700   52.4300 C   0  0  0  0  0  0  0  0  0  0  0  0
   18.6200   30.2900   51.4700 F   0  0  0  0  0  0  0  0  0  0  0  0
   18.8700   29.6000   53.7300 C   0  0  0  0  0  0  0  0  0  0  0  0
   21.8300   32.6400   56.5200 C   0  0  0  0  0  0  0  0  0  0  0  0
   25.0400   35.1100   50.6200 H   0  0  0  0  0  0  0  0  0  0  0  0
   24.3000   33.6300   50.0000 H   0  0  0  0  0  0  0  0  0  0  0  0
   25.9100   33.5700   50.7200 H   0  0  0  0  0  0  0  0  0  0  0  0
   22.4200   33.0300   51.4900 H   0  0  0  0  0  0  0  0  0  0  0  0
   21.6300   32.5900   53.7800 H   0  0  0  0  0  0  0  0  0  0  0  0
   25.1400   33.3200   56.8900 H   0  0  0  0  0  0  0  0  0  0  0  0
   24.6300   32.6600   59.1700 H   0  0  0  0  0  0  0  0  0  0  0  0
   22.3600   31.8900   59.7900 H   0  0  0  0  0  0  0  0  0  0  0  0
   19.9800   31.9300   59.2700 H   0  0  0  0  0  0  0  0  0  0  0  0
   19.4200   32.3900   57.7100 H   0  0  0  0  0  0  0  0  0  0  0  0
   19.2300   26.7900   56.7600 H   0  0  0  0  0  0  0  0  0  0  0  0
   20.0800   27.2000   58.9400 H   0  0  0  0  0  0  0  0  0  0  0  0
   17.7400   26.7300   55.1700 H   0  0  0  0  0  0  0  0  0  0  0  0
   17.3600   28.0200   51.1300 H   0  0  0  0  0  0  0  0  0  0  0  0
   19.4100   30.5100   53.9300 H   0  0  0  0  0  0  0  0  0  0  0  0
   21.0200   32.6300   55.8000 H   0  0  0  0  0  0  0  0  0  0  0  0
  1 31  1  0  0  0  0
  1 30  1  0  0  0  0
  1 32  1  0  0  0  0
  1  2  1  0  0  0  0
 25 43  1  0  0  0  0
 26 27  1  0  0  0  0
  3 33  1  0  0  0  0
 25 26  2  0  0  0  0
 23 25  1  0  0  0  0
  2  3  2  0  0  0  0
  2  7  1  0  0  0  0
  3  4  1  0  0  0  0
 26 28  1  0  0  0  0
 23 24  1  0  0  0  0
 22 23  2  0  0  0  0
  6  7  2  0  0  0  0
  4 34  1  0  0  0  0
  4  5  2  0  0  0  0
 28 44  1  0  0  0  0
 21 28  2  0  0  0  0
 21 22  1  0  0  0  0
 22 42  1  0  0  0  0
  5  6  1  0  0  0  0
  5  8  1  0  0  0  0
 16 21  1  0  0  0  0
 29 45  1  0  0  0  0
 15 16  2  0  0  0  0
 16 17  1  0  0  0  0
  8 29  2  0  0  0  0
  8  9  1  0  0  0  0
 12 29  1  0  0  0  0
 14 15  1  0  0  0  0
 17 40  1  0  0  0  0
  9 35  1  0  0  0  0
 17 18  2  0  0  0  0
  9 10  2  0  0  0  0
 13 39  1  0  0  0  0
 12 13  1  0  0  0  0
 11 12  2  0  0  0  0
 13 14  1  0  0  0  0
 14 19  1  0  0  0  0
 13 38  1  0  0  0  0
 18 19  1  0  0  0  0
 18 41  1  0  0  0  0
 10 11  1  0  0  0  0
 10 36  1  0  0  0  0
 11 37  1  0  0  0  0
 19 20  2  0  0  0  0
M  END
$$$$
