
 OpenBabel06282218313D

 54 58  0  0  0  0  0  0  0  0999 V2000
    1.4237   -2.8036   -2.6010 C   0  0  0  0  0  0  0  0  0  0  0  0
   -0.0029   -2.9599   -2.7226 N   0  0  0  0  0  0  0  0  0  0  0  0
   -1.0240   -3.1160   -1.8540 C   0  0  0  0  0  0  0  0  0  0  0  0
   -2.1181   -3.3336   -2.4048 O   0  0  0  0  0  0  0  0  0  0  0  0
   -1.0261   -3.0202   -0.3209 C   0  0  0  0  0  0  0  0  0  0  0  0
    0.2313   -2.9891    0.4390 N   0  0  0  0  0  0  0  0  0  0  0  0
   -0.0295   -3.3064    1.8692 C   0  0  0  0  0  0  0  0  0  0  0  0
   -0.4808   -2.1443    2.7468 C   0  0  0  0  0  0  0  0  0  0  0  0
   -0.9765   -2.4214    4.0341 C   0  0  0  0  0  0  0  0  0  0  0  0
   -1.2553   -1.3906    4.9367 C   0  0  0  0  0  0  0  0  0  0  0  0
   -1.0500   -0.0693    4.5601 C   0  0  0  0  0  0  0  0  0  0  0  0
   -1.3349    1.2020    5.6848 Cl  0  0  0  0  0  0  0  0  0  0  0  0
   -0.5797    0.2297    3.2847 C   0  0  0  0  0  0  0  0  0  0  0  0
   -0.2766   -0.8010    2.3707 C   0  0  0  0  0  0  0  0  0  0  0  0
    0.3753   -0.4808    1.0405 C   0  0  0  0  0  0  0  0  0  0  0  0
   -0.4999    0.3314    0.0531 C   0  0  0  0  0  0  0  0  0  0  0  0
    0.5109    1.0985   -0.7969 C   0  0  0  0  0  0  0  0  0  0  0  0
    1.5412    1.3769    0.1525 N   0  0  0  0  0  0  0  0  0  0  0  0
    2.7188    2.1091   -0.0905 C   0  0  0  0  0  0  0  0  0  0  0  0
    3.7790    1.4919   -0.7537 C   0  0  0  0  0  0  0  0  0  0  0  0
    5.0780    1.7807   -0.5247 N   0  0  0  0  0  0  0  0  0  0  0  0
    5.3215    2.6695    0.4709 C   0  0  0  0  0  0  0  0  0  0  0  0
    4.3378    3.3811    1.1705 C   0  0  0  0  0  0  0  0  0  0  0  0
    4.6175    4.2599    2.2337 C   0  0  0  0  0  0  0  0  0  0  0  0
    3.5874    4.9492    2.8812 C   0  0  0  0  0  0  0  0  0  0  0  0
    2.2705    4.7910    2.4651 C   0  0  0  0  0  0  0  0  0  0  0  0
    1.9781    3.8886    1.4486 C   0  0  0  0  0  0  0  0  0  0  0  0
    2.9997    3.1462    0.8177 C   0  0  0  0  0  0  0  0  0  0  0  0
    1.5574    0.4590    1.2129 C   0  0  0  0  0  0  0  0  0  0  0  0
    2.4153    0.3587    2.0816 O   0  0  0  0  0  0  0  0  0  0  0  0
    1.0040   -1.7428    0.4090 C   0  0  0  0  0  0  0  0  0  0  0  0
    1.6504   -1.7339   -2.5746 H   0  0  0  0  0  0  0  0  0  0  0  0
    1.8868   -3.2044   -3.5069 H   0  0  0  0  0  0  0  0  0  0  0  0
    1.8153   -3.3288   -1.7316 H   0  0  0  0  0  0  0  0  0  0  0  0
   -0.3417   -3.0712   -3.6716 H   0  0  0  0  0  0  0  0  0  0  0  0
   -1.6952   -2.2040   -0.0354 H   0  0  0  0  0  0  0  0  0  0  0  0
   -1.5500   -3.9441   -0.0349 H   0  0  0  0  0  0  0  0  0  0  0  0
    0.9067   -3.6877    2.2990 H   0  0  0  0  0  0  0  0  0  0  0  0
   -0.7511   -4.1289    1.9548 H   0  0  0  0  0  0  0  0  0  0  0  0
   -1.1088   -3.4513    4.3603 H   0  0  0  0  0  0  0  0  0  0  0  0
   -1.6029   -1.6265    5.9390 H   0  0  0  0  0  0  0  0  0  0  0  0
   -0.3848    1.2697    3.0287 H   0  0  0  0  0  0  0  0  0  0  0  0
   -1.1691   -0.2625   -0.5699 H   0  0  0  0  0  0  0  0  0  0  0  0
   -1.1267    1.0507    0.5974 H   0  0  0  0  0  0  0  0  0  0  0  0
    0.0896    2.0273   -1.1928 H   0  0  0  0  0  0  0  0  0  0  0  0
    0.9029    0.4907   -1.6179 H   0  0  0  0  0  0  0  0  0  0  0  0
    3.6169    0.6488   -1.4184 H   0  0  0  0  0  0  0  0  0  0  0  0
    6.3739    2.7868    0.7172 H   0  0  0  0  0  0  0  0  0  0  0  0
    5.6385    4.3876    2.5843 H   0  0  0  0  0  0  0  0  0  0  0  0
    3.8121    5.6078    3.7155 H   0  0  0  0  0  0  0  0  0  0  0  0
    1.4675    5.3425    2.9462 H   0  0  0  0  0  0  0  0  0  0  0  0
    0.9407    3.7561    1.1476 H   0  0  0  0  0  0  0  0  0  0  0  0
    1.9580   -1.9674    0.9126 H   0  0  0  0  0  0  0  0  0  0  0  0
    1.3140   -1.4997   -0.5991 H   0  0  0  0  0  0  0  0  0  0  0  0
  1  2  1  0  0  0  0
  1 32  1  0  0  0  0
  1 33  1  0  0  0  0
  1 34  1  0  0  0  0
  2  3  1  0  0  0  0
  2 35  1  0  0  0  0
  3  4  2  0  0  0  0
  3  5  1  0  0  0  0
  5  6  1  0  0  0  0
  5 36  1  0  0  0  0
  5 37  1  0  0  0  0
  6  7  1  0  0  0  0
  6 31  1  0  0  0  0
  7  8  1  0  0  0  0
  7 38  1  0  0  0  0
  7 39  1  0  0  0  0
  8  9  1  0  0  0  0
  8 14  2  0  0  0  0
  9 10  2  0  0  0  0
  9 40  1  0  0  0  0
 10 11  1  0  0  0  0
 10 41  1  0  0  0  0
 11 12  1  0  0  0  0
 11 13  2  0  0  0  0
 13 14  1  0  0  0  0
 13 42  1  0  0  0  0
 14 15  1  0  0  0  0
 15 16  1  0  0  0  0
 15 29  1  0  0  0  0
 15 31  1  0  0  0  0
 16 17  1  0  0  0  0
 16 43  1  0  0  0  0
 16 44  1  0  0  0  0
 17 18  1  0  0  0  0
 17 45  1  0  0  0  0
 17 46  1  0  0  0  0
 18 19  1  0  0  0  0
 18 29  1  0  0  0  0
 19 20  1  0  0  0  0
 19 28  2  0  0  0  0
 20 21  2  0  0  0  0
 20 47  1  0  0  0  0
 21 22  1  0  0  0  0
 22 23  2  0  0  0  0
 22 48  1  0  0  0  0
 23 24  1  0  0  0  0
 23 28  1  0  0  0  0
 24 25  2  0  0  0  0
 24 49  1  0  0  0  0
 25 26  1  0  0  0  0
 25 50  1  0  0  0  0
 26 27  2  0  0  0  0
 26 51  1  0  0  0  0
 27 28  1  0  0  0  0
 27 52  1  0  0  0  0
 29 30  2  0  0  0  0
 31 53  1  0  0  0  0
 31 54  1  0  0  0  0
M  END
$$$$
