
 OpenBabel06282218313D

 54 58  0  0  0  0  0  0  0  0999 V2000
    0.9670   -0.8687    0.5681 C   0  0  0  0  0  0  0  0  0  0  0  0
    0.4033   -0.7203    1.8894 N   0  0  0  0  0  0  0  0  0  0  0  0
   -0.1322    0.4262    2.4203 C   0  0  0  0  0  0  0  0  0  0  0  0
   -0.3870    0.4745    3.6240 O   0  0  0  0  0  0  0  0  0  0  0  0
   -0.4160    1.6030    1.4778 C   0  0  0  0  0  0  0  0  0  0  0  0
    0.8468    2.2473    1.0976 N   0  0  0  0  0  0  0  0  0  0  0  0
    1.3114    3.2062    2.1116 C   0  0  0  0  0  0  0  0  0  0  0  0
    0.8687    4.6437    1.9133 C   0  0  0  0  0  0  0  0  0  0  0  0
    1.0999    5.5680    2.9517 C   0  0  0  0  0  0  0  0  0  0  0  0
    0.8633    6.9334    2.7733 C   0  0  0  0  0  0  0  0  0  0  0  0
    0.4060    7.3925    1.5487 C   0  0  0  0  0  0  0  0  0  0  0  0
    0.1603    9.0753    1.2866 Cl  0  0  0  0  0  0  0  0  0  0  0  0
    0.1553    6.4919    0.5189 C   0  0  0  0  0  0  0  0  0  0  0  0
    0.3646    5.1051    0.6840 C   0  0  0  0  0  0  0  0  0  0  0  0
    0.0715    4.1143   -0.4556 C   0  0  0  0  0  0  0  0  0  0  0  0
   -1.4521    3.8595   -0.5985 C   0  0  0  0  0  0  0  0  0  0  0  0
   -1.8028    4.3059   -2.0089 C   0  0  0  0  0  0  0  0  0  0  0  0
   -0.7635    5.2271   -2.3558 N   0  0  0  0  0  0  0  0  0  0  0  0
   -0.8808    6.2375   -3.3454 C   0  0  0  0  0  0  0  0  0  0  0  0
    0.1383    6.3444   -4.3020 C   0  0  0  0  0  0  0  0  0  0  0  0
    0.1522    7.2180   -5.3274 N   0  0  0  0  0  0  0  0  0  0  0  0
   -0.9088    8.0345   -5.4195 C   0  0  0  0  0  0  0  0  0  0  0  0
   -1.9834    8.0538   -4.5334 C   0  0  0  0  0  0  0  0  0  0  0  0
   -3.0239    8.9702   -4.7745 C   0  0  0  0  0  0  0  0  0  0  0  0
   -4.0952    9.0902   -3.9040 C   0  0  0  0  0  0  0  0  0  0  0  0
   -4.0907    8.3493   -2.7387 C   0  0  0  0  0  0  0  0  0  0  0  0
   -3.0390    7.4580   -2.4653 C   0  0  0  0  0  0  0  0  0  0  0  0
   -3.0539    6.9067   -0.8216 Cl  0  0  0  0  0  0  0  0  0  0  0  0
   -1.9786    7.1856   -3.4061 C   0  0  0  0  0  0  0  0  0  0  0  0
    0.4413    4.7693   -1.7952 C   0  0  0  0  0  0  0  0  0  0  0  0
    1.5820    4.9865   -2.1771 O   0  0  0  0  0  0  0  0  0  0  0  0
    0.8873    2.8243   -0.2542 C   0  0  0  0  0  0  0  0  0  0  0  0
    0.2980   -0.4519   -0.1880 H   0  0  0  0  0  0  0  0  0  0  0  0
    1.1132   -1.9331    0.3711 H   0  0  0  0  0  0  0  0  0  0  0  0
    1.9304   -0.3538    0.5324 H   0  0  0  0  0  0  0  0  0  0  0  0
    0.6367   -1.4121    2.5909 H   0  0  0  0  0  0  0  0  0  0  0  0
   -0.9402    1.1806    0.6146 H   0  0  0  0  0  0  0  0  0  0  0  0
   -1.1139    2.2949    1.9649 H   0  0  0  0  0  0  0  0  0  0  0  0
    2.4088    3.2057    2.0833 H   0  0  0  0  0  0  0  0  0  0  0  0
    1.0344    2.8761    3.1207 H   0  0  0  0  0  0  0  0  0  0  0  0
    1.4961    5.2279    3.9066 H   0  0  0  0  0  0  0  0  0  0  0  0
    1.0622    7.6324    3.5803 H   0  0  0  0  0  0  0  0  0  0  0  0
   -0.1795    6.8994   -0.4304 H   0  0  0  0  0  0  0  0  0  0  0  0
   -1.7411    2.8123   -0.4886 H   0  0  0  0  0  0  0  0  0  0  0  0
   -2.0271    4.4169    0.1483 H   0  0  0  0  0  0  0  0  0  0  0  0
   -2.8202    4.6779   -2.1204 H   0  0  0  0  0  0  0  0  0  0  0  0
   -1.7131    3.4476   -2.6894 H   0  0  0  0  0  0  0  0  0  0  0  0
    0.9969    5.6783   -4.3047 H   0  0  0  0  0  0  0  0  0  0  0  0
   -0.8567    8.7251   -6.2589 H   0  0  0  0  0  0  0  0  0  0  0  0
   -2.9991    9.6153   -5.6521 H   0  0  0  0  0  0  0  0  0  0  0  0
   -4.8952    9.7979   -4.1027 H   0  0  0  0  0  0  0  0  0  0  0  0
   -4.8863    8.5021   -2.0115 H   0  0  0  0  0  0  0  0  0  0  0  0
    1.9445    3.0158   -0.4868 H   0  0  0  0  0  0  0  0  0  0  0  0
    0.5839    2.0652   -0.9877 H   0  0  0  0  0  0  0  0  0  0  0  0
  1  2  1  0  0  0  0
  1 33  1  0  0  0  0
  1 34  1  0  0  0  0
  1 35  1  0  0  0  0
  2  3  1  0  0  0  0
  2 36  1  0  0  0  0
  3  4  2  0  0  0  0
  3  5  1  0  0  0  0
  5  6  1  0  0  0  0
  5 37  1  0  0  0  0
  5 38  1  0  0  0  0
  6  7  1  0  0  0  0
  6 32  1  0  0  0  0
  7  8  1  0  0  0  0
  7 39  1  0  0  0  0
  7 40  1  0  0  0  0
  8  9  1  0  0  0  0
  8 14  2  0  0  0  0
  9 10  2  0  0  0  0
  9 41  1  0  0  0  0
 10 11  1  0  0  0  0
 10 42  1  0  0  0  0
 11 12  1  0  0  0  0
 11 13  2  0  0  0  0
 13 14  1  0  0  0  0
 13 43  1  0  0  0  0
 14 15  1  0  0  0  0
 15 16  1  0  0  0  0
 15 30  1  0  0  0  0
 15 32  1  0  0  0  0
 16 17  1  0  0  0  0
 16 44  1  0  0  0  0
 16 45  1  0  0  0  0
 17 18  1  0  0  0  0
 17 46  1  0  0  0  0
 17 47  1  0  0  0  0
 18 19  1  0  0  0  0
 18 30  1  0  0  0  0
 19 20  1  0  0  0  0
 19 29  2  0  0  0  0
 20 21  2  0  0  0  0
 20 48  1  0  0  0  0
 21 22  1  0  0  0  0
 22 23  2  0  0  0  0
 22 49  1  0  0  0  0
 23 24  1  0  0  0  0
 23 29  1  0  0  0  0
 24 25  2  0  0  0  0
 24 50  1  0  0  0  0
 25 26  1  0  0  0  0
 25 51  1  0  0  0  0
 26 27  2  0  0  0  0
 26 52  1  0  0  0  0
 27 28  1  0  0  0  0
 27 29  1  0  0  0  0
 30 31  2  0  0  0  0
 32 53  1  0  0  0  0
 32 54  1  0  0  0  0
M  END
$$$$
