
 OpenBabel06282218313D

 59 64  0  0  0  0  0  0  0  0999 V2000
   -2.3696   -0.3833    0.0658 N   0  0  0  0  0  0  0  0  0  0  0  0
   -1.3513    0.0858    0.3851 C   0  0  0  0  0  0  0  0  0  0  0  0
   -0.0830    0.7067    0.7347 C   0  0  0  0  0  0  0  0  0  0  0  0
    0.3225    0.6674    2.1522 N   0  0  0  0  0  0  0  0  0  0  0  0
   -0.0879   -0.3557    2.9878 C   0  0  0  0  0  0  0  0  0  0  0  0
   -1.0615   -0.1478    3.7153 O   0  0  0  0  0  0  0  0  0  0  0  0
    0.8129   -1.5877    3.1658 C   0  0  0  0  0  0  0  0  0  0  0  0
    0.5935   -2.6157    2.1475 N   0  0  0  0  0  0  0  0  0  0  0  0
    0.8031   -3.9845    2.6495 C   0  0  0  0  0  0  0  0  0  0  0  0
    2.2321   -4.5006    2.5964 C   0  0  0  0  0  0  0  0  0  0  0  0
    2.5355   -5.6876    3.2879 C   0  0  0  0  0  0  0  0  0  0  0  0
    3.7906   -6.2860    3.1693 C   0  0  0  0  0  0  0  0  0  0  0  0
    4.7562   -5.7020    2.3580 C   0  0  0  0  0  0  0  0  0  0  0  0
    6.2952   -6.4532    2.1826 Cl  0  0  0  0  0  0  0  0  0  0  0  0
    4.4798   -4.5215    1.6684 C   0  0  0  0  0  0  0  0  0  0  0  0
    3.2127   -3.9132    1.7669 C   0  0  0  0  0  0  0  0  0  0  0  0
    2.8714   -2.6659    0.9608 C   0  0  0  0  0  0  0  0  0  0  0  0
    3.6383   -1.4116    1.4374 C   0  0  0  0  0  0  0  0  0  0  0  0
    4.5425   -0.9806    0.2911 C   0  0  0  0  0  0  0  0  0  0  0  0
    4.0666   -1.6877   -0.8564 N   0  0  0  0  0  0  0  0  0  0  0  0
    4.7475   -1.7975   -2.1029 C   0  0  0  0  0  0  0  0  0  0  0  0
    3.9295   -1.6350   -3.2287 C   0  0  0  0  0  0  0  0  0  0  0  0
    4.0683   -2.3133   -4.3850 N   0  0  0  0  0  0  0  0  0  0  0  0
    5.0075   -3.2832   -4.3777 C   0  0  0  0  0  0  0  0  0  0  0  0
    5.9254   -3.5013   -3.3451 C   0  0  0  0  0  0  0  0  0  0  0  0
    6.8565   -4.5546   -3.3889 C   0  0  0  0  0  0  0  0  0  0  0  0
    7.8016   -4.7163   -2.3764 C   0  0  0  0  0  0  0  0  0  0  0  0
    7.8543   -3.8055   -1.3335 C   0  0  0  0  0  0  0  0  0  0  0  0
    6.8993   -2.7936   -1.2534 C   0  0  0  0  0  0  0  0  0  0  0  0
    5.8712   -2.6578   -2.2171 C   0  0  0  0  0  0  0  0  0  0  0  0
    3.2757   -2.7909   -0.4939 C   0  0  0  0  0  0  0  0  0  0  0  0
    2.9352   -3.7111   -1.2268 O   0  0  0  0  0  0  0  0  0  0  0  0
    1.3359   -2.4652    0.8959 C   0  0  0  0  0  0  0  0  0  0  0  0
    0.9801    0.7955   -0.3527 C   0  0  0  0  0  0  0  0  0  0  0  0
    0.2090    2.0205    0.0017 C   0  0  0  0  0  0  0  0  0  0  0  0
   -0.1006    1.4958    2.5710 H   0  0  0  0  0  0  0  0  0  0  0  0
    1.8524   -1.2846    3.2935 H   0  0  0  0  0  0  0  0  0  0  0  0
    0.5203   -1.9826    4.1490 H   0  0  0  0  0  0  0  0  0  0  0  0
    0.2013   -4.6590    2.0245 H   0  0  0  0  0  0  0  0  0  0  0  0
    0.4044   -4.0900    3.6659 H   0  0  0  0  0  0  0  0  0  0  0  0
    1.7762   -6.1744    3.8979 H   0  0  0  0  0  0  0  0  0  0  0  0
    3.9969   -7.2167    3.6913 H   0  0  0  0  0  0  0  0  0  0  0  0
    5.2455   -4.1071    1.0171 H   0  0  0  0  0  0  0  0  0  0  0  0
    2.9656   -0.5805    1.6635 H   0  0  0  0  0  0  0  0  0  0  0  0
    4.2296   -1.5869    2.3447 H   0  0  0  0  0  0  0  0  0  0  0  0
    5.5720   -1.2236    0.5397 H   0  0  0  0  0  0  0  0  0  0  0  0
    4.4771    0.0975    0.1092 H   0  0  0  0  0  0  0  0  0  0  0  0
    3.0355   -1.0179   -3.1792 H   0  0  0  0  0  0  0  0  0  0  0  0
    4.9979   -3.9167   -5.2613 H   0  0  0  0  0  0  0  0  0  0  0  0
    6.8347   -5.2708   -4.2068 H   0  0  0  0  0  0  0  0  0  0  0  0
    8.5060   -5.5427   -2.4126 H   0  0  0  0  0  0  0  0  0  0  0  0
    8.6246   -3.8861   -0.5703 H   0  0  0  0  0  0  0  0  0  0  0  0
    7.0002   -2.0889   -0.4388 H   0  0  0  0  0  0  0  0  0  0  0  0
    0.8992   -3.1869    0.1883 H   0  0  0  0  0  0  0  0  0  0  0  0
    1.1156   -1.5099    0.4348 H   0  0  0  0  0  0  0  0  0  0  0  0
    2.0237    0.7687   -0.0707 H   0  0  0  0  0  0  0  0  0  0  0  0
    0.7778    0.3276   -1.3119 H   0  0  0  0  0  0  0  0  0  0  0  0
   -0.5066    2.3891   -0.7262 H   0  0  0  0  0  0  0  0  0  0  0  0
    0.7411    2.8068    0.5243 H   0  0  0  0  0  0  0  0  0  0  0  0
  1  2  3  0  0  0  0
  2  3  1  0  0  0  0
  3  4  1  0  0  0  0
  3 34  1  0  0  0  0
  3 35  1  0  0  0  0
  4  5  1  0  0  0  0
  4 36  1  0  0  0  0
  5  6  2  0  0  0  0
  5  7  1  0  0  0  0
  7  8  1  0  0  0  0
  7 37  1  0  0  0  0
  7 38  1  0  0  0  0
  8  9  1  0  0  0  0
  8 33  1  0  0  0  0
  9 10  1  0  0  0  0
  9 39  1  0  0  0  0
  9 40  1  0  0  0  0
 10 11  1  0  0  0  0
 10 16  2  0  0  0  0
 11 12  2  0  0  0  0
 11 41  1  0  0  0  0
 12 13  1  0  0  0  0
 12 42  1  0  0  0  0
 13 14  1  0  0  0  0
 13 15  2  0  0  0  0
 15 16  1  0  0  0  0
 15 43  1  0  0  0  0
 16 17  1  0  0  0  0
 17 18  1  0  0  0  0
 17 31  1  0  0  0  0
 17 33  1  0  0  0  0
 18 19  1  0  0  0  0
 18 44  1  0  0  0  0
 18 45  1  0  0  0  0
 19 20  1  0  0  0  0
 19 46  1  0  0  0  0
 19 47  1  0  0  0  0
 20 21  1  0  0  0  0
 20 31  1  0  0  0  0
 21 22  1  0  0  0  0
 21 30  2  0  0  0  0
 22 23  2  0  0  0  0
 22 48  1  0  0  0  0
 23 24  1  0  0  0  0
 24 25  2  0  0  0  0
 24 49  1  0  0  0  0
 25 26  1  0  0  0  0
 25 30  1  0  0  0  0
 26 27  2  0  0  0  0
 26 50  1  0  0  0  0
 27 28  1  0  0  0  0
 27 51  1  0  0  0  0
 28 29  2  0  0  0  0
 28 52  1  0  0  0  0
 29 30  1  0  0  0  0
 29 53  1  0  0  0  0
 31 32  2  0  0  0  0
 33 54  1  0  0  0  0
 33 55  1  0  0  0  0
 34 35  1  0  0  0  0
 34 56  1  0  0  0  0
 34 57  1  0  0  0  0
 35 58  1  0  0  0  0
 35 59  1  0  0  0  0
M  END
$$$$
