
 OpenBabel06282218323D

 57 61  0  0  0  0  0  0  0  0999 V2000
    1.8240   -2.5703   -0.4185 C   0  0  0  0  0  0  0  0  0  0  0  0
    1.6299   -3.7777    0.3466 N   0  0  0  0  0  0  0  0  0  0  0  0
    1.1986   -4.0070    1.6131 C   0  0  0  0  0  0  0  0  0  0  0  0
    1.1326   -5.1881    1.9689 O   0  0  0  0  0  0  0  0  0  0  0  0
    0.6832   -2.9169    2.5330 C   0  0  0  0  0  0  0  0  0  0  0  0
    1.6065   -1.7416    2.8772 C   0  0  0  0  0  0  0  0  0  0  0  0
    0.8379   -0.4794    2.8442 N   0  0  0  0  0  0  0  0  0  0  0  0
    1.5298    0.6326    3.5252 C   0  0  0  0  0  0  0  0  0  0  0  0
    0.7910    1.9593    3.3806 C   0  0  0  0  0  0  0  0  0  0  0  0
    1.0970    3.0214    4.2476 C   0  0  0  0  0  0  0  0  0  0  0  0
    0.4684    4.2629    4.1088 C   0  0  0  0  0  0  0  0  0  0  0  0
   -0.4654    4.4575    3.0972 C   0  0  0  0  0  0  0  0  0  0  0  0
   -1.2469    5.9810    2.9241 Cl  0  0  0  0  0  0  0  0  0  0  0  0
   -0.7697    3.4246    2.2165 C   0  0  0  0  0  0  0  0  0  0  0  0
   -0.1409    2.1712    2.3402 C   0  0  0  0  0  0  0  0  0  0  0  0
   -0.4499    1.0479    1.3671 C   0  0  0  0  0  0  0  0  0  0  0  0
   -1.8956    0.5219    1.5033 C   0  0  0  0  0  0  0  0  0  0  0  0
   -2.2552    0.0235    0.1074 C   0  0  0  0  0  0  0  0  0  0  0  0
   -1.4048    0.7725   -0.7810 N   0  0  0  0  0  0  0  0  0  0  0  0
   -1.8389    1.3554   -1.9940 C   0  0  0  0  0  0  0  0  0  0  0  0
   -1.1593    0.9732   -3.1517 C   0  0  0  0  0  0  0  0  0  0  0  0
   -1.1067    1.7061   -4.2825 N   0  0  0  0  0  0  0  0  0  0  0  0
   -1.6884    2.9250   -4.2199 C   0  0  0  0  0  0  0  0  0  0  0  0
   -2.4058    3.4172   -3.1238 C   0  0  0  0  0  0  0  0  0  0  0  0
   -2.9398    4.7187   -3.1060 C   0  0  0  0  0  0  0  0  0  0  0  0
   -3.6577    5.1824   -2.0036 C   0  0  0  0  0  0  0  0  0  0  0  0
   -3.8716    4.3463   -0.9170 C   0  0  0  0  0  0  0  0  0  0  0  0
   -3.3170    3.0674   -0.9109 C   0  0  0  0  0  0  0  0  0  0  0  0
   -2.5437    2.5854   -1.9945 C   0  0  0  0  0  0  0  0  0  0  0  0
   -0.3982    1.4687   -0.0864 C   0  0  0  0  0  0  0  0  0  0  0  0
    0.4191    2.2320   -0.5731 O   0  0  0  0  0  0  0  0  0  0  0  0
    0.5923   -0.0726    1.4559 C   0  0  0  0  0  0  0  0  0  0  0  0
    0.8556   -2.1660   -0.7186 H   0  0  0  0  0  0  0  0  0  0  0  0
    2.3913   -2.8254   -1.3179 H   0  0  0  0  0  0  0  0  0  0  0  0
    2.3941   -1.8403    0.1526 H   0  0  0  0  0  0  0  0  0  0  0  0
    1.8007   -4.6487   -0.1440 H   0  0  0  0  0  0  0  0  0  0  0  0
   -0.2857   -2.5972    2.1314 H   0  0  0  0  0  0  0  0  0  0  0  0
    0.4352   -3.4110    3.4840 H   0  0  0  0  0  0  0  0  0  0  0  0
    1.9733   -1.9009    3.9000 H   0  0  0  0  0  0  0  0  0  0  0  0
    2.5009   -1.6937    2.2491 H   0  0  0  0  0  0  0  0  0  0  0  0
    2.5446    0.7649    3.1259 H   0  0  0  0  0  0  0  0  0  0  0  0
    1.6103    0.3966    4.5928 H   0  0  0  0  0  0  0  0  0  0  0  0
    1.8353    2.8908    5.0358 H   0  0  0  0  0  0  0  0  0  0  0  0
    0.7168    5.0748    4.7867 H   0  0  0  0  0  0  0  0  0  0  0  0
   -1.4826    3.6079    1.4164 H   0  0  0  0  0  0  0  0  0  0  0  0
   -2.0029   -0.2639    2.2591 H   0  0  0  0  0  0  0  0  0  0  0  0
   -2.5877    1.3242    1.7853 H   0  0  0  0  0  0  0  0  0  0  0  0
   -3.3175    0.1418   -0.1247 H   0  0  0  0  0  0  0  0  0  0  0  0
   -1.9979   -1.0362   -0.0051 H   0  0  0  0  0  0  0  0  0  0  0  0
   -0.5573    0.0687   -3.1708 H   0  0  0  0  0  0  0  0  0  0  0  0
   -1.5405    3.5330   -5.1090 H   0  0  0  0  0  0  0  0  0  0  0  0
   -2.7757    5.3903   -3.9457 H   0  0  0  0  0  0  0  0  0  0  0  0
   -4.0500    6.1957   -1.9939 H   0  0  0  0  0  0  0  0  0  0  0  0
   -4.4520    4.6908   -0.0648 H   0  0  0  0  0  0  0  0  0  0  0  0
   -3.5043    2.4474   -0.0416 H   0  0  0  0  0  0  0  0  0  0  0  0
    1.5366    0.2258    0.9759 H   0  0  0  0  0  0  0  0  0  0  0  0
    0.2143   -0.9183    0.8805 H   0  0  0  0  0  0  0  0  0  0  0  0
  1  2  1  0  0  0  0
  1 33  1  0  0  0  0
  1 34  1  0  0  0  0
  1 35  1  0  0  0  0
  2  3  1  0  0  0  0
  2 36  1  0  0  0  0
  3  4  2  0  0  0  0
  3  5  1  0  0  0  0
  5  6  1  0  0  0  0
  5 37  1  0  0  0  0
  5 38  1  0  0  0  0
  6  7  1  0  0  0  0
  6 39  1  0  0  0  0
  6 40  1  0  0  0  0
  7  8  1  0  0  0  0
  7 32  1  0  0  0  0
  8  9  1  0  0  0  0
  8 41  1  0  0  0  0
  8 42  1  0  0  0  0
  9 10  1  0  0  0  0
  9 15  2  0  0  0  0
 10 11  2  0  0  0  0
 10 43  1  0  0  0  0
 11 12  1  0  0  0  0
 11 44  1  0  0  0  0
 12 13  1  0  0  0  0
 12 14  2  0  0  0  0
 14 15  1  0  0  0  0
 14 45  1  0  0  0  0
 15 16  1  0  0  0  0
 16 17  1  0  0  0  0
 16 30  1  0  0  0  0
 16 32  1  0  0  0  0
 17 18  1  0  0  0  0
 17 46  1  0  0  0  0
 17 47  1  0  0  0  0
 18 19  1  0  0  0  0
 18 48  1  0  0  0  0
 18 49  1  0  0  0  0
 19 20  1  0  0  0  0
 19 30  1  0  0  0  0
 20 21  1  0  0  0  0
 20 29  2  0  0  0  0
 21 22  2  0  0  0  0
 21 50  1  0  0  0  0
 22 23  1  0  0  0  0
 23 24  2  0  0  0  0
 23 51  1  0  0  0  0
 24 25  1  0  0  0  0
 24 29  1  0  0  0  0
 25 26  2  0  0  0  0
 25 52  1  0  0  0  0
 26 27  1  0  0  0  0
 26 53  1  0  0  0  0
 27 28  2  0  0  0  0
 27 54  1  0  0  0  0
 28 29  1  0  0  0  0
 28 55  1  0  0  0  0
 30 31  2  0  0  0  0
 32 56  1  0  0  0  0
 32 57  1  0  0  0  0
M  END
$$$$
