
 OpenBabel06282218323D

 63 68  0  0  0  0  0  0  0  0999 V2000
   -1.4419    2.5282    2.3044 N   0  0  0  0  0  0  0  0  0  0  0  0
   -0.9419    2.1563    3.6234 C   0  0  0  0  0  0  0  0  0  0  0  0
   -0.2648    0.7859    3.6407 C   0  0  0  0  0  0  0  0  0  0  0  0
    1.1918    0.7236    3.5881 N   0  0  0  0  0  0  0  0  0  0  0  0
    2.1799    1.3172    2.8441 C   0  0  0  0  0  0  0  0  0  0  0  0
    3.3394    0.9378    3.0590 O   0  0  0  0  0  0  0  0  0  0  0  0
    1.9316    2.4251    1.8231 C   0  0  0  0  0  0  0  0  0  0  0  0
    1.4542    2.0092    0.5028 N   0  0  0  0  0  0  0  0  0  0  0  0
    0.8103    0.7218    0.3843 C   0  0  0  0  0  0  0  0  0  0  0  0
    1.7558   -0.4141    0.1349 C   0  0  0  0  0  0  0  0  0  0  0  0
    1.5629   -1.6625    0.7395 C   0  0  0  0  0  0  0  0  0  0  0  0
    2.1046   -2.8104    0.1826 C   0  0  0  0  0  0  0  0  0  0  0  0
    2.7965   -2.7035   -1.0089 C   0  0  0  0  0  0  0  0  0  0  0  0
    3.2418   -4.1405   -1.8382 Cl  0  0  0  0  0  0  0  0  0  0  0  0
    3.1050   -1.4443   -1.5295 C   0  0  0  0  0  0  0  0  0  0  0  0
    2.6787   -0.2677   -0.8983 C   0  0  0  0  0  0  0  0  0  0  0  0
    3.2063    1.1424   -1.2296 C   0  0  0  0  0  0  0  0  0  0  0  0
    4.6661    1.2609   -0.7212 C   0  0  0  0  0  0  0  0  0  0  0  0
    5.5397    1.4730   -1.9522 C   0  0  0  0  0  0  0  0  0  0  0  0
    4.7014    1.2805   -3.0949 N   0  0  0  0  0  0  0  0  0  0  0  0
    5.0236    0.5499   -4.2823 C   0  0  0  0  0  0  0  0  0  0  0  0
    4.5078    1.0689   -5.4775 C   0  0  0  0  0  0  0  0  0  0  0  0
    4.2837    0.3582   -6.6014 N   0  0  0  0  0  0  0  0  0  0  0  0
    4.4924   -0.9680   -6.5022 C   0  0  0  0  0  0  0  0  0  0  0  0
    5.0391   -1.6087   -5.3898 C   0  0  0  0  0  0  0  0  0  0  0  0
    5.1502   -3.0112   -5.3671 C   0  0  0  0  0  0  0  0  0  0  0  0
    5.7140   -3.6670   -4.2786 C   0  0  0  0  0  0  0  0  0  0  0  0
    6.1996   -2.9250   -3.2143 C   0  0  0  0  0  0  0  0  0  0  0  0
    6.0487   -1.5341   -3.2066 C   0  0  0  0  0  0  0  0  0  0  0  0
    5.4175   -0.8278   -4.2696 C   0  0  0  0  0  0  0  0  0  0  0  0
    3.3402    1.3225   -2.7380 C   0  0  0  0  0  0  0  0  0  0  0  0
    2.3899    1.3570   -3.5126 O   0  0  0  0  0  0  0  0  0  0  0  0
    2.2945    2.2918   -0.6743 C   0  0  0  0  0  0  0  0  0  0  0  0
   -1.0974   -0.4075    3.1628 C   0  0  0  0  0  0  0  0  0  0  0  0
   -0.8846   -0.2249    4.6194 C   0  0  0  0  0  0  0  0  0  0  0  0
   -0.6814    2.5742    1.6268 H   0  0  0  0  0  0  0  0  0  0  0  0
   -2.0830    1.8193    1.9552 H   0  0  0  0  0  0  0  0  0  0  0  0
   -0.2598    2.9247    3.9978 H   0  0  0  0  0  0  0  0  0  0  0  0
   -1.8011    2.1560    4.3043 H   0  0  0  0  0  0  0  0  0  0  0  0
    1.6168    0.0498    4.2178 H   0  0  0  0  0  0  0  0  0  0  0  0
    1.2401    3.1517    2.2554 H   0  0  0  0  0  0  0  0  0  0  0  0
    2.8729    2.9835    1.7304 H   0  0  0  0  0  0  0  0  0  0  0  0
    0.1292    0.7569   -0.4784 H   0  0  0  0  0  0  0  0  0  0  0  0
    0.1473    0.5067    1.2092 H   0  0  0  0  0  0  0  0  0  0  0  0
    0.9525   -1.7624    1.6240 H   0  0  0  0  0  0  0  0  0  0  0  0
    1.9151   -3.7786    0.6347 H   0  0  0  0  0  0  0  0  0  0  0  0
    3.6426   -1.3959   -2.4619 H   0  0  0  0  0  0  0  0  0  0  0  0
    4.8005    2.0962   -0.0232 H   0  0  0  0  0  0  0  0  0  0  0  0
    4.9996    0.3664   -0.1811 H   0  0  0  0  0  0  0  0  0  0  0  0
    6.4556    0.8845   -1.9522 H   0  0  0  0  0  0  0  0  0  0  0  0
    5.8648    2.5211   -1.9840 H   0  0  0  0  0  0  0  0  0  0  0  0
    4.1767    2.1037   -5.5317 H   0  0  0  0  0  0  0  0  0  0  0  0
    4.1780   -1.5324   -7.3770 H   0  0  0  0  0  0  0  0  0  0  0  0
    4.7608   -3.6085   -6.1897 H   0  0  0  0  0  0  0  0  0  0  0  0
    5.7544   -4.7529   -4.2522 H   0  0  0  0  0  0  0  0  0  0  0  0
    6.6413   -3.4284   -2.3573 H   0  0  0  0  0  0  0  0  0  0  0  0
    6.4010   -1.0290   -2.3176 H   0  0  0  0  0  0  0  0  0  0  0  0
    1.5836    2.5781   -1.4625 H   0  0  0  0  0  0  0  0  0  0  0  0
    2.8796    3.2094   -0.5240 H   0  0  0  0  0  0  0  0  0  0  0  0
   -2.0980   -0.2432    2.7771 H   0  0  0  0  0  0  0  0  0  0  0  0
   -0.6311   -1.2726    2.7181 H   0  0  0  0  0  0  0  0  0  0  0  0
   -0.2457   -0.9504    5.1131 H   0  0  0  0  0  0  0  0  0  0  0  0
   -1.7486    0.0518    5.2120 H   0  0  0  0  0  0  0  0  0  0  0  0
  1  2  1  0  0  0  0
  1 36  1  0  0  0  0
  1 37  1  0  0  0  0
  2  3  1  0  0  0  0
  2 34  1  0  0  0  0
  2 35  1  0  0  0  0
  3  4  1  0  0  0  0
  3 38  1  0  0  0  0
  3 39  1  0  0  0  0
  4  5  1  0  0  0  0
  4 40  1  0  0  0  0
  5  6  2  0  0  0  0
  5  7  1  0  0  0  0
  7  8  1  0  0  0  0
  7 41  1  0  0  0  0
  7 42  1  0  0  0  0
  8  9  1  0  0  0  0
  8 33  1  0  0  0  0
  9 10  1  0  0  0  0
  9 43  1  0  0  0  0
  9 44  1  0  0  0  0
 10 11  1  0  0  0  0
 10 16  2  0  0  0  0
 11 12  2  0  0  0  0
 11 45  1  0  0  0  0
 12 13  1  0  0  0  0
 12 46  1  0  0  0  0
 13 14  1  0  0  0  0
 13 15  2  0  0  0  0
 15 16  1  0  0  0  0
 15 47  1  0  0  0  0
 16 17  1  0  0  0  0
 17 18  1  0  0  0  0
 17 31  1  0  0  0  0
 17 33  1  0  0  0  0
 18 19  1  0  0  0  0
 18 48  1  0  0  0  0
 18 49  1  0  0  0  0
 19 20  1  0  0  0  0
 19 50  1  0  0  0  0
 19 51  1  0  0  0  0
 20 21  1  0  0  0  0
 20 31  1  0  0  0  0
 21 22  1  0  0  0  0
 21 30  2  0  0  0  0
 22 23  2  0  0  0  0
 22 52  1  0  0  0  0
 23 24  1  0  0  0  0
 24 25  2  0  0  0  0
 24 53  1  0  0  0  0
 25 26  1  0  0  0  0
 25 30  1  0  0  0  0
 26 27  2  0  0  0  0
 26 54  1  0  0  0  0
 27 28  1  0  0  0  0
 27 55  1  0  0  0  0
 28 29  2  0  0  0  0
 28 56  1  0  0  0  0
 29 30  1  0  0  0  0
 29 57  1  0  0  0  0
 31 32  2  0  0  0  0
 33 58  1  0  0  0  0
 33 59  1  0  0  0  0
 34 35  1  0  0  0  0
 34 60  1  0  0  0  0
 34 61  1  0  0  0  0
 35 62  1  0  0  0  0
 35 63  1  0  0  0  0
M  END
$$$$
