
 OpenBabel06282218323D

 64 69  0  0  0  0  0  0  0  0999 V2000
    0.4874    0.1593    0.1064 O   0  0  0  0  0  0  0  0  0  0  0  0
    1.4453    0.6257    0.7147 C   0  0  0  0  0  0  0  0  0  0  0  0
    2.4603   -0.1964    1.5134 C   0  0  0  0  0  0  0  0  0  0  0  0
    2.9224   -1.4746    0.9161 N   0  0  0  0  0  0  0  0  0  0  0  0
    4.2671   -1.7964    1.4312 C   0  0  0  0  0  0  0  0  0  0  0  0
    5.3353   -0.8969    0.8388 C   0  0  0  0  0  0  0  0  0  0  0  0
    6.4536   -0.5454    1.6145 C   0  0  0  0  0  0  0  0  0  0  0  0
    7.4541    0.2729    1.0900 C   0  0  0  0  0  0  0  0  0  0  0  0
    7.3572    0.7189   -0.2220 C   0  0  0  0  0  0  0  0  0  0  0  0
    8.5865    1.7282   -0.8800 Cl  0  0  0  0  0  0  0  0  0  0  0  0
    6.2626    0.3633   -1.0089 C   0  0  0  0  0  0  0  0  0  0  0  0
    5.2216   -0.4311   -0.4896 C   0  0  0  0  0  0  0  0  0  0  0  0
    3.9894   -0.7911   -1.3391 C   0  0  0  0  0  0  0  0  0  0  0  0
    3.3135    0.4493   -1.9564 C   0  0  0  0  0  0  0  0  0  0  0  0
    2.8602   -0.0243   -3.3167 C   0  0  0  0  0  0  0  0  0  0  0  0
    3.9088   -0.8819   -3.7622 N   0  0  0  0  0  0  0  0  0  0  0  0
    4.8966   -0.5112   -4.7379 C   0  0  0  0  0  0  0  0  0  0  0  0
    5.5037   -1.5673   -5.4277 C   0  0  0  0  0  0  0  0  0  0  0  0
    6.6368   -1.4668   -6.1513 N   0  0  0  0  0  0  0  0  0  0  0  0
    7.2572   -0.2722   -6.1060 C   0  0  0  0  0  0  0  0  0  0  0  0
    6.7609    0.8641   -5.4654 C   0  0  0  0  0  0  0  0  0  0  0  0
    7.5340    2.0408   -5.4072 C   0  0  0  0  0  0  0  0  0  0  0  0
    7.0518    3.1920   -4.7928 C   0  0  0  0  0  0  0  0  0  0  0  0
    5.7632    3.2007   -4.2949 C   0  0  0  0  0  0  0  0  0  0  0  0
    4.9973    2.0328   -4.3428 C   0  0  0  0  0  0  0  0  0  0  0  0
    5.4917    0.7940   -4.8464 C   0  0  0  0  0  0  0  0  0  0  0  0
    4.4329   -1.5506   -2.6152 C   0  0  0  0  0  0  0  0  0  0  0  0
    5.1946   -2.5080   -2.6306 O   0  0  0  0  0  0  0  0  0  0  0  0
    2.9580   -1.6425   -0.5516 C   0  0  0  0  0  0  0  0  0  0  0  0
    1.7623    1.9790    0.6798 N   0  0  0  0  0  0  0  0  0  0  0  0
    1.0132    2.9244   -0.1308 C   0  0  0  0  0  0  0  0  0  0  0  0
    1.7403    4.2695   -0.0797 C   0  0  0  0  0  0  0  0  0  0  0  0
    1.7960    4.6880    1.2105 F   0  0  0  0  0  0  0  0  0  0  0  0
    3.0986    4.3834   -0.8379 C   0  0  0  0  0  0  0  0  0  0  0  0
    2.3354    4.9469   -2.0458 C   0  0  0  0  0  0  0  0  0  0  0  0
    1.1925    5.3214   -1.0849 C   0  0  0  0  0  0  0  0  0  0  0  0
    3.3087    0.4608    1.7396 H   0  0  0  0  0  0  0  0  0  0  0  0
    1.9863   -0.4258    2.4755 H   0  0  0  0  0  0  0  0  0  0  0  0
    4.5217   -2.8387    1.1986 H   0  0  0  0  0  0  0  0  0  0  0  0
    4.2661   -1.7222    2.5264 H   0  0  0  0  0  0  0  0  0  0  0  0
    6.5481   -0.9041    2.6375 H   0  0  0  0  0  0  0  0  0  0  0  0
    8.3070    0.5488    1.7040 H   0  0  0  0  0  0  0  0  0  0  0  0
    6.2367    0.7087   -2.0377 H   0  0  0  0  0  0  0  0  0  0  0  0
    2.4537    0.8106   -1.4167 H   0  0  0  0  0  0  0  0  0  0  0  0
    4.0009    1.2922   -2.0237 H   0  0  0  0  0  0  0  0  0  0  0  0
    2.5785    0.7443   -4.0373 H   0  0  0  0  0  0  0  0  0  0  0  0
    1.9678   -0.6556   -3.2015 H   0  0  0  0  0  0  0  0  0  0  0  0
    5.0922   -2.5733   -5.3749 H   0  0  0  0  0  0  0  0  0  0  0  0
    8.2173   -0.2534   -6.6162 H   0  0  0  0  0  0  0  0  0  0  0  0
    8.5408    2.0566   -5.8205 H   0  0  0  0  0  0  0  0  0  0  0  0
    7.6722    4.0810   -4.7230 H   0  0  0  0  0  0  0  0  0  0  0  0
    5.3492    4.1051   -3.8558 H   0  0  0  0  0  0  0  0  0  0  0  0
    3.9875    2.1358   -3.9735 H   0  0  0  0  0  0  0  0  0  0  0  0
    3.1746   -2.7060   -0.7351 H   0  0  0  0  0  0  0  0  0  0  0  0
    1.9505   -1.5294   -0.9666 H   0  0  0  0  0  0  0  0  0  0  0  0
    2.3905    2.3529    1.3837 H   0  0  0  0  0  0  0  0  0  0  0  0
    0.9331    2.5343   -1.1511 H   0  0  0  0  0  0  0  0  0  0  0  0
    0.0048    3.0054    0.2860 H   0  0  0  0  0  0  0  0  0  0  0  0
    3.7853    5.1075   -0.3823 H   0  0  0  0  0  0  0  0  0  0  0  0
    3.6463    3.4560   -1.0183 H   0  0  0  0  0  0  0  0  0  0  0  0
    2.0647    4.1881   -2.7881 H   0  0  0  0  0  0  0  0  0  0  0  0
    2.8155    5.7858   -2.5576 H   0  0  0  0  0  0  0  0  0  0  0  0
    0.1851    5.1478   -1.4733 H   0  0  0  0  0  0  0  0  0  0  0  0
    1.2522    6.3502   -0.7115 H   0  0  0  0  0  0  0  0  0  0  0  0
  1  2  2  0  0  0  0
  2  3  1  0  0  0  0
  2 30  1  0  0  0  0
  3  4  1  0  0  0  0
  3 37  1  0  0  0  0
  3 38  1  0  0  0  0
  4  5  1  0  0  0  0
  4 29  1  0  0  0  0
  5  6  1  0  0  0  0
  5 39  1  0  0  0  0
  5 40  1  0  0  0  0
  6  7  1  0  0  0  0
  6 12  2  0  0  0  0
  7  8  2  0  0  0  0
  7 41  1  0  0  0  0
  8  9  1  0  0  0  0
  8 42  1  0  0  0  0
  9 10  1  0  0  0  0
  9 11  2  0  0  0  0
 11 12  1  0  0  0  0
 11 43  1  0  0  0  0
 12 13  1  0  0  0  0
 13 14  1  0  0  0  0
 13 27  1  0  0  0  0
 13 29  1  0  0  0  0
 14 15  1  0  0  0  0
 14 44  1  0  0  0  0
 14 45  1  0  0  0  0
 15 16  1  0  0  0  0
 15 46  1  0  0  0  0
 15 47  1  0  0  0  0
 16 17  1  0  0  0  0
 16 27  1  0  0  0  0
 17 18  1  0  0  0  0
 17 26  2  0  0  0  0
 18 19  2  0  0  0  0
 18 48  1  0  0  0  0
 19 20  1  0  0  0  0
 20 21  2  0  0  0  0
 20 49  1  0  0  0  0
 21 22  1  0  0  0  0
 21 26  1  0  0  0  0
 22 23  2  0  0  0  0
 22 50  1  0  0  0  0
 23 24  1  0  0  0  0
 23 51  1  0  0  0  0
 24 25  2  0  0  0  0
 24 52  1  0  0  0  0
 25 26  1  0  0  0  0
 25 53  1  0  0  0  0
 27 28  2  0  0  0  0
 29 54  1  0  0  0  0
 29 55  1  0  0  0  0
 30 31  1  0  0  0  0
 30 56  1  0  0  0  0
 31 32  1  0  0  0  0
 31 57  1  0  0  0  0
 31 58  1  0  0  0  0
 32 33  1  0  0  0  0
 32 34  1  0  0  0  0
 32 36  1  0  0  0  0
 34 35  1  0  0  0  0
 34 59  1  0  0  0  0
 34 60  1  0  0  0  0
 35 36  1  0  0  0  0
 35 61  1  0  0  0  0
 35 62  1  0  0  0  0
 36 63  1  0  0  0  0
 36 64  1  0  0  0  0
M  END
$$$$
