
 OpenBabel06282218323D

 67 72  0  0  0  0  0  0  0  0999 V2000
   -0.5995   -0.9676   -0.0936 C   0  0  0  0  0  0  0  0  0  0  0  0
    0.6186   -0.6360    0.7873 C   0  0  0  0  0  0  0  0  0  0  0  0
    0.2639   -0.7972    2.2764 C   0  0  0  0  0  0  0  0  0  0  0  0
    1.2391   -0.1086    3.1004 N   0  0  0  0  0  0  0  0  0  0  0  0
    1.1226    1.0443    3.8310 C   0  0  0  0  0  0  0  0  0  0  0  0
    2.1451    1.5129    4.3386 O   0  0  0  0  0  0  0  0  0  0  0  0
   -0.2464    1.7110    4.0327 C   0  0  0  0  0  0  0  0  0  0  0  0
   -0.4791    2.7023    2.9855 N   0  0  0  0  0  0  0  0  0  0  0  0
   -0.6297    4.0900    3.4289 C   0  0  0  0  0  0  0  0  0  0  0  0
   -2.0566    4.6123    3.5077 C   0  0  0  0  0  0  0  0  0  0  0  0
   -2.2731    5.8925    4.0498 C   0  0  0  0  0  0  0  0  0  0  0  0
   -3.5482    6.4644    4.0624 C   0  0  0  0  0  0  0  0  0  0  0  0
   -4.6237    5.7617    3.5348 C   0  0  0  0  0  0  0  0  0  0  0  0
   -6.1975    6.4572    3.5410 Cl  0  0  0  0  0  0  0  0  0  0  0  0
   -4.4315    4.4975    2.9865 C   0  0  0  0  0  0  0  0  0  0  0  0
   -3.1483    3.9153    2.9510 C   0  0  0  0  0  0  0  0  0  0  0  0
   -2.9297    2.5618    2.2993 C   0  0  0  0  0  0  0  0  0  0  0  0
   -3.6009    1.4279    3.1111 C   0  0  0  0  0  0  0  0  0  0  0  0
   -3.9332    0.3490    2.0895 C   0  0  0  0  0  0  0  0  0  0  0  0
   -4.0699    1.0764    0.8608 N   0  0  0  0  0  0  0  0  0  0  0  0
   -4.9675    0.7261   -0.1659 C   0  0  0  0  0  0  0  0  0  0  0  0
   -4.4359    0.1499   -1.3179 C   0  0  0  0  0  0  0  0  0  0  0  0
   -5.0630    0.1230   -2.5116 N   0  0  0  0  0  0  0  0  0  0  0  0
   -6.2485    0.7722   -2.5702 C   0  0  0  0  0  0  0  0  0  0  0  0
   -6.8924    1.3668   -1.4791 C   0  0  0  0  0  0  0  0  0  0  0  0
   -8.1127    2.0537   -1.6095 C   0  0  0  0  0  0  0  0  0  0  0  0
   -8.7383    2.6144   -0.4954 C   0  0  0  0  0  0  0  0  0  0  0  0
   -8.1635    2.4825    0.7626 C   0  0  0  0  0  0  0  0  0  0  0  0
   -6.9348    1.8374    0.8971 C   0  0  0  0  0  0  0  0  0  0  0  0
   -6.2601    1.2955   -0.2224 C   0  0  0  0  0  0  0  0  0  0  0  0
   -3.6336    2.4060    0.9597 C   0  0  0  0  0  0  0  0  0  0  0  0
   -3.7343    3.2665    0.1027 O   0  0  0  0  0  0  0  0  0  0  0  0
   -1.4384    2.3592    1.9467 C   0  0  0  0  0  0  0  0  0  0  0  0
    1.3603    0.6533    0.2925 C   0  0  0  0  0  0  0  0  0  0  0  0
    2.2700   -0.2479   -0.5632 C   0  0  0  0  0  0  0  0  0  0  0  0
    1.8835   -1.4317    0.3417 C   0  0  0  0  0  0  0  0  0  0  0  0
   -1.3926   -0.2281    0.0455 H   0  0  0  0  0  0  0  0  0  0  0  0
   -0.3508   -0.9701   -1.1606 H   0  0  0  0  0  0  0  0  0  0  0  0
   -1.0086   -1.9522    0.1545 H   0  0  0  0  0  0  0  0  0  0  0  0
   -0.7391   -0.4356    2.4967 H   0  0  0  0  0  0  0  0  0  0  0  0
    0.2893   -1.8562    2.5561 H   0  0  0  0  0  0  0  0  0  0  0  0
    2.2005   -0.4257    3.0524 H   0  0  0  0  0  0  0  0  0  0  0  0
   -1.0084    0.9355    4.0883 H   0  0  0  0  0  0  0  0  0  0  0  0
   -0.2278    2.1655    5.0314 H   0  0  0  0  0  0  0  0  0  0  0  0
   -0.1074    4.7198    2.6959 H   0  0  0  0  0  0  0  0  0  0  0  0
   -0.1217    4.2585    4.3863 H   0  0  0  0  0  0  0  0  0  0  0  0
   -1.4363    6.4679    4.4419 H   0  0  0  0  0  0  0  0  0  0  0  0
   -3.6909    7.4622    4.4680 H   0  0  0  0  0  0  0  0  0  0  0  0
   -5.2841    3.9818    2.5504 H   0  0  0  0  0  0  0  0  0  0  0  0
   -3.0140    1.0453    3.9459 H   0  0  0  0  0  0  0  0  0  0  0  0
   -4.5444    1.7757    3.5536 H   0  0  0  0  0  0  0  0  0  0  0  0
   -4.8499   -0.1901    2.3498 H   0  0  0  0  0  0  0  0  0  0  0  0
   -3.1151   -0.3692    1.9803 H   0  0  0  0  0  0  0  0  0  0  0  0
   -3.4291   -0.2560   -1.3285 H   0  0  0  0  0  0  0  0  0  0  0  0
   -6.6829    0.8143   -3.5659 H   0  0  0  0  0  0  0  0  0  0  0  0
   -8.5739    2.1721   -2.5874 H   0  0  0  0  0  0  0  0  0  0  0  0
   -9.6747    3.1539   -0.6104 H   0  0  0  0  0  0  0  0  0  0  0  0
   -8.6593    2.8964    1.6371 H   0  0  0  0  0  0  0  0  0  0  0  0
   -6.5077    1.7547    1.8921 H   0  0  0  0  0  0  0  0  0  0  0  0
   -1.1887    2.9841    1.0751 H   0  0  0  0  0  0  0  0  0  0  0  0
   -1.2680    1.3475    1.5876 H   0  0  0  0  0  0  0  0  0  0  0  0
    0.7583    1.3724   -0.2714 H   0  0  0  0  0  0  0  0  0  0  0  0
    1.9235    1.2087    1.0494 H   0  0  0  0  0  0  0  0  0  0  0  0
    3.3313    0.0143   -0.5607 H   0  0  0  0  0  0  0  0  0  0  0  0
    1.9369   -0.3541   -1.6015 H   0  0  0  0  0  0  0  0  0  0  0  0
    2.6127   -1.6230    1.1367 H   0  0  0  0  0  0  0  0  0  0  0  0
    1.6964   -2.3751   -0.1812 H   0  0  0  0  0  0  0  0  0  0  0  0
  1  2  1  0  0  0  0
  1 37  1  0  0  0  0
  1 38  1  0  0  0  0
  1 39  1  0  0  0  0
  2  3  1  0  0  0  0
  2 34  1  0  0  0  0
  2 36  1  0  0  0  0
  3  4  1  0  0  0  0
  3 40  1  0  0  0  0
  3 41  1  0  0  0  0
  4  5  1  0  0  0  0
  4 42  1  0  0  0  0
  5  6  2  0  0  0  0
  5  7  1  0  0  0  0
  7  8  1  0  0  0  0
  7 43  1  0  0  0  0
  7 44  1  0  0  0  0
  8  9  1  0  0  0  0
  8 33  1  0  0  0  0
  9 10  1  0  0  0  0
  9 45  1  0  0  0  0
  9 46  1  0  0  0  0
 10 11  1  0  0  0  0
 10 16  2  0  0  0  0
 11 12  2  0  0  0  0
 11 47  1  0  0  0  0
 12 13  1  0  0  0  0
 12 48  1  0  0  0  0
 13 14  1  0  0  0  0
 13 15  2  0  0  0  0
 15 16  1  0  0  0  0
 15 49  1  0  0  0  0
 16 17  1  0  0  0  0
 17 18  1  0  0  0  0
 17 31  1  0  0  0  0
 17 33  1  0  0  0  0
 18 19  1  0  0  0  0
 18 50  1  0  0  0  0
 18 51  1  0  0  0  0
 19 20  1  0  0  0  0
 19 52  1  0  0  0  0
 19 53  1  0  0  0  0
 20 21  1  0  0  0  0
 20 31  1  0  0  0  0
 21 22  1  0  0  0  0
 21 30  2  0  0  0  0
 22 23  2  0  0  0  0
 22 54  1  0  0  0  0
 23 24  1  0  0  0  0
 24 25  2  0  0  0  0
 24 55  1  0  0  0  0
 25 26  1  0  0  0  0
 25 30  1  0  0  0  0
 26 27  2  0  0  0  0
 26 56  1  0  0  0  0
 27 28  1  0  0  0  0
 27 57  1  0  0  0  0
 28 29  2  0  0  0  0
 28 58  1  0  0  0  0
 29 30  1  0  0  0  0
 29 59  1  0  0  0  0
 31 32  2  0  0  0  0
 33 60  1  0  0  0  0
 33 61  1  0  0  0  0
 34 35  1  0  0  0  0
 34 62  1  0  0  0  0
 34 63  1  0  0  0  0
 35 36  1  0  0  0  0
 35 64  1  0  0  0  0
 35 65  1  0  0  0  0
 36 66  1  0  0  0  0
 36 67  1  0  0  0  0
M  END
$$$$
