
     RDKit          3D

 35 39  0  0  0  0  0  0  0  0999 V2000
    0.1953   -0.3019   -0.0481 C   0  0  0  0  0  0  0  0  0  0  0  0
   -0.4249    0.9016   -0.7527 C   0  0  0  0  0  0  0  0  0  0  0  0
    0.1332    1.0253   -2.1708 C   0  0  0  0  0  0  0  0  0  0  0  0
   -1.7660    0.6369   -0.8755 F   0  0  0  0  0  0  0  0  0  0  0  0
   -0.3077    2.2422    0.0111 C   0  0  0  0  0  0  0  0  0  0  0  0
   -0.5271    2.1213    1.4460 N   0  0  0  0  0  0  0  0  0  0  0  0
    0.3857    2.1067    2.4676 C   0  0  0  0  0  0  0  0  0  0  0  0
    0.0156    1.7175    3.5772 O   0  0  0  0  0  0  0  0  0  0  0  0
    1.8053    2.6385    2.2388 C   0  0  0  0  0  0  0  0  0  0  0  0
    2.6877    1.5869    1.7206 N   0  0  0  0  0  0  0  0  0  0  0  0
    3.8145    1.2871    2.6211 C   0  0  0  0  0  0  0  0  0  0  0  0
    5.0160    2.2055    2.4672 C   0  0  0  0  0  0  0  0  0  0  0  0
    5.9858    2.2274    3.4857 C   0  0  0  0  0  0  0  0  0  0  0  0
    7.1545    2.9808    3.3500 C   0  0  0  0  0  0  0  0  0  0  0  0
    7.3711    3.7118    2.1894 C   0  0  0  0  0  0  0  0  0  0  0  0
    8.8092    4.6394    2.0077 Cl  0  0  0  0  0  0  0  0  0  0  0  0
    6.4311    3.6907    1.1631 C   0  0  0  0  0  0  0  0  0  0  0  0
    5.2454    2.9376    1.2828 C   0  0  0  0  0  0  0  0  0  0  0  0
    4.2353    2.8909    0.1409 C   0  0  0  0  0  0  0  0  0  0  0  0
    3.6447    4.2881   -0.1607 C   0  0  0  0  0  0  0  0  0  0  0  0
    3.3448    4.2600   -1.6473 C   0  0  0  0  0  0  0  0  0  0  0  0
    4.3419    3.3940   -2.2064 N   0  0  0  0  0  0  0  0  0  0  0  0
    5.2894    3.7917   -3.1953 C   0  0  0  0  0  0  0  0  0  0  0  0
    5.5639    2.8442   -4.1866 C   0  0  0  0  0  0  0  0  0  0  0  0
    6.7176    2.7731   -4.8788 N   0  0  0  0  0  0  0  0  0  0  0  0
    7.6892    3.6223   -4.4830 C   0  0  0  0  0  0  0  0  0  0  0  0
    7.5335    4.6300   -3.5263 C   0  0  0  0  0  0  0  0  0  0  0  0
    8.6156    5.4368   -3.1278 C   0  0  0  0  0  0  0  0  0  0  0  0
    8.4434    6.4624   -2.2004 C   0  0  0  0  0  0  0  0  0  0  0  0
    7.1799    6.7243   -1.6972 C   0  0  0  0  0  0  0  0  0  0  0  0
    6.1106    5.9045   -2.0591 C   0  0  0  0  0  0  0  0  0  0  0  0
    6.2670    4.7943   -2.9287 C   0  0  0  0  0  0  0  0  0  0  0  0
    4.8835    2.5566   -1.2000 C   0  0  0  0  0  0  0  0  0  0  0  0
    5.7429    1.6988   -1.3673 O   0  0  0  0  0  0  0  0  0  0  0  0
    3.2050    1.7645    0.3602 C   0  0  0  0  0  0  0  0  0  0  0  0
  1  2  1  0
  2  3  1  0
  2  4  1  0
  2  5  1  0
  5  6  1  0
  6  7  1  0
  7  8  2  0
  7  9  1  0
  9 10  1  0
 10 11  1  0
 10 35  1  0
 11 12  1  0
 12 13  1  0
 12 18  2  0
 13 14  2  0
 14 15  1  0
 15 16  1  0
 15 17  2  0
 17 18  1  0
 18 19  1  0
 19 20  1  0
 19 33  1  0
 19 35  1  0
 20 21  1  0
 21 22  1  0
 22 23  1  0
 22 33  1  0
 23 24  2  0
 23 32  1  0
 24 25  1  0
 25 26  2  0
 26 27  1  0
 27 28  1  0
 27 32  2  0
 28 29  2  0
 29 30  1  0
 30 31  2  0
 31 32  1  0
 33 34  2  0
M  END
$$$$
