
     RDKit          3D

 36 40  0  0  0  0  0  0  0  0999 V2000
   -0.8922    2.1503    0.2142 C   0  0  0  0  0  0  0  0  0  0  0  0
   -0.2613    0.8399   -0.2834 C   0  0  0  0  0  0  0  0  0  0  0  0
   -0.4309   -0.2372    0.7987 C   0  0  0  0  0  0  0  0  0  0  0  0
    1.1788    1.0704   -0.5254 C   0  0  0  0  0  0  0  0  0  0  0  0
    2.3082    1.2360   -0.7329 N   0  0  0  0  0  0  0  0  0  0  0  0
   -0.9537    0.4070   -1.5999 C   0  0  0  0  0  0  0  0  0  0  0  0
   -0.3886   -0.8020   -2.1884 N   0  0  0  0  0  0  0  0  0  0  0  0
   -1.0196   -1.7867   -2.8924 C   0  0  0  0  0  0  0  0  0  0  0  0
   -0.3265   -2.6426   -3.4457 O   0  0  0  0  0  0  0  0  0  0  0  0
   -2.5375   -1.8037   -3.0075 C   0  0  0  0  0  0  0  0  0  0  0  0
   -3.2770   -2.2991   -1.8475 N   0  0  0  0  0  0  0  0  0  0  0  0
   -2.6182   -2.9686   -0.7603 C   0  0  0  0  0  0  0  0  0  0  0  0
   -2.2941   -4.3980   -1.0426 C   0  0  0  0  0  0  0  0  0  0  0  0
   -1.0757   -4.8562   -0.4684 C   0  0  0  0  0  0  0  0  0  0  0  0
   -0.5899   -6.1373   -0.6843 C   0  0  0  0  0  0  0  0  0  0  0  0
   -1.3123   -6.9787   -1.4989 C   0  0  0  0  0  0  0  0  0  0  0  0
   -0.7285   -8.5668   -1.8219 Cl  0  0  0  0  0  0  0  0  0  0  0  0
   -2.5210   -6.5522   -2.0652 C   0  0  0  0  0  0  0  0  0  0  0  0
   -3.1051   -5.2653   -1.8147 C   0  0  0  0  0  0  0  0  0  0  0  0
   -4.6422   -4.6681   -2.5707 C   0  0  0  0  0  0  0  0  0  0  0  0
   -3.8334   -4.8684   -4.4584 C   0  0  0  0  0  0  0  0  0  0  0  0
   -5.3168   -5.6386   -5.5900 C   0  0  0  0  0  0  0  0  0  0  0  0
   -6.9707   -5.7053   -4.6624 N   0  0  0  0  0  0  0  0  0  0  0  0
   -7.6199   -4.2064   -4.2996 C   0  0  0  0  0  0  0  0  0  0  0  0
   -8.9189   -4.0846   -3.8222 C   0  0  0  0  0  0  0  0  0  0  0  0
   -9.2728   -3.6337   -2.5457 N   0  0  0  0  0  0  0  0  0  0  0  0
   -8.3342   -3.6262   -1.5294 C   0  0  0  0  0  0  0  0  0  0  0  0
   -7.0267   -3.9888   -1.7689 C   0  0  0  0  0  0  0  0  0  0  0  0
   -6.1375   -5.2350   -0.8908 C   0  0  0  0  0  0  0  0  0  0  0  0
   -5.2318   -6.5003   -1.6977 C   0  0  0  0  0  0  0  0  0  0  0  0
   -4.9822   -6.2146   -3.4588 C   0  0  0  0  0  0  0  0  0  0  0  0
   -5.6970   -4.4131   -4.0092 C   0  0  0  0  0  0  0  0  0  0  0  0
   -6.7629   -3.7140   -3.3653 C   0  0  0  0  0  0  0  0  0  0  0  0
   -6.5948   -5.7312   -2.9405 C   0  0  0  0  0  0  0  0  0  0  0  0
   -7.4449   -6.4565   -2.3649 O   0  0  0  0  0  0  0  0  0  0  0  0
   -4.5247   -2.9872   -2.1661 C   0  0  0  0  0  0  0  0  0  0  0  0
  1  2  1  0
  2  3  1  0
  2  4  1  0
  2  6  1  0
  4  5  3  0
  6  7  1  0
  7  8  1  0
  8  9  2  0
  8 10  1  0
 10 11  1  0
 11 12  1  0
 11 36  1  0
 12 13  1  0
 13 14  1  0
 13 19  2  0
 14 15  2  0
 15 16  1  0
 16 17  1  0
 16 18  2  0
 18 19  1  0
 19 20  1  0
 20 21  1  0
 20 34  1  0
 20 36  1  0
 21 22  1  0
 22 23  1  0
 23 24  1  0
 23 34  1  0
 24 25  2  0
 24 33  1  0
 25 26  1  0
 26 27  2  0
 27 28  1  0
 28 29  1  0
 28 33  2  0
 29 30  2  0
 30 31  1  0
 31 32  2  0
 32 33  1  0
 34 35  2  0
M  END
$$$$
