
     RDKit          3D

 32 36  0  0  0  0  0  0  0  0999 V2000
    1.3771   -1.8727    1.2110 C   0  0  0  0  0  0  0  0  0  0  0  0
    1.6995   -0.9000    2.2284 N   0  0  0  0  0  0  0  0  0  0  0  0
    0.9850    0.2117    2.5870 C   0  0  0  0  0  0  0  0  0  0  0  0
    1.4394    0.9533    3.4587 O   0  0  0  0  0  0  0  0  0  0  0  0
   -0.3453    0.4925    1.8792 C   0  0  0  0  0  0  0  0  0  0  0  0
   -0.3605    1.7430    1.1063 N   0  0  0  0  0  0  0  0  0  0  0  0
   -0.7022    2.9157    1.8910 C   0  0  0  0  0  0  0  0  0  0  0  0
   -0.3905    4.2547    1.2325 C   0  0  0  0  0  0  0  0  0  0  0  0
   -0.6343    5.3748    2.0641 C   0  0  0  0  0  0  0  0  0  0  0  0
   -0.0653    6.6082    1.7902 C   0  0  0  0  0  0  0  0  0  0  0  0
    0.8228    6.6998    0.7361 C   0  0  0  0  0  0  0  0  0  0  0  0
    1.6758    8.1740    0.4718 Cl  0  0  0  0  0  0  0  0  0  0  0  0
    1.0535    5.6037   -0.1091 C   0  0  0  0  0  0  0  0  0  0  0  0
    0.3250    4.3945   -0.0002 C   0  0  0  0  0  0  0  0  0  0  0  0
    0.3420    2.9801   -1.0601 C   0  0  0  0  0  0  0  0  0  0  0  0
   -1.7341    2.8207   -1.1135 C   0  0  0  0  0  0  0  0  0  0  0  0
   -2.1788    2.1369   -2.9681 C   0  0  0  0  0  0  0  0  0  0  0  0
   -0.6103    1.7328   -3.9638 N   0  0  0  0  0  0  0  0  0  0  0  0
    0.2328    0.4153   -3.3661 C   0  0  0  0  0  0  0  0  0  0  0  0
    1.2826   -0.1579   -4.0756 C   0  0  0  0  0  0  0  0  0  0  0  0
    2.6291   -0.1619   -3.6826 N   0  0  0  0  0  0  0  0  0  0  0  0
    3.0803    0.7354   -2.7335 C   0  0  0  0  0  0  0  0  0  0  0  0
    2.2059    1.5932   -2.1095 C   0  0  0  0  0  0  0  0  0  0  0  0
    2.3828    3.3422   -2.0656 C   0  0  0  0  0  0  0  0  0  0  0  0
    1.0634    4.4405   -2.4480 C   0  0  0  0  0  0  0  0  0  0  0  0
   -0.5340    3.6852   -2.5162 C   0  0  0  0  0  0  0  0  0  0  0  0
   -1.7221    4.9060   -3.0091 Cl  0  0  0  0  0  0  0  0  0  0  0  0
   -0.4426    1.7221   -2.0539 C   0  0  0  0  0  0  0  0  0  0  0  0
    0.7173    0.8809   -2.1857 C   0  0  0  0  0  0  0  0  0  0  0  0
    0.7195    2.6432   -3.2525 C   0  0  0  0  0  0  0  0  0  0  0  0
    1.5058    2.9722   -4.1735 O   0  0  0  0  0  0  0  0  0  0  0  0
    0.7902    1.9676    0.2309 C   0  0  0  0  0  0  0  0  0  0  0  0
  1  2  1  0
  2  3  1  0
  3  4  2  0
  3  5  1  0
  5  6  1  0
  6  7  1  0
  6 32  1  0
  7  8  1  0
  8  9  1  0
  8 14  2  0
  9 10  2  0
 10 11  1  0
 11 12  1  0
 11 13  2  0
 13 14  1  0
 14 15  1  0
 15 16  1  0
 15 30  1  0
 15 32  1  0
 16 17  1  0
 17 18  1  0
 18 19  1  0
 18 30  1  0
 19 20  2  0
 19 29  1  0
 20 21  1  0
 21 22  2  0
 22 23  1  0
 23 24  1  0
 23 29  2  0
 24 25  2  0
 25 26  1  0
 26 27  1  0
 26 28  2  0
 28 29  1  0
 30 31  2  0
M  END
$$$$
