
     RDKit          3D

 33 37  0  0  0  0  0  0  0  0999 V2000
    1.0701   -0.0023    0.0713 N   0  0  0  0  0  0  0  0  0  0  0  0
    2.3311   -0.0023    0.0713 C   0  0  0  0  0  0  0  0  0  0  0  0
    3.8511   -0.0023    0.0713 C   0  0  0  0  0  0  0  0  0  0  0  0
    4.3845   -0.2508    1.4033 N   0  0  0  0  0  0  0  0  0  0  0  0
    5.1772   -1.2791    1.8251 C   0  0  0  0  0  0  0  0  0  0  0  0
    5.5341   -1.3144    3.0024 O   0  0  0  0  0  0  0  0  0  0  0  0
    5.6540   -2.3151    0.8088 C   0  0  0  0  0  0  0  0  0  0  0  0
    4.5222   -2.7677   -0.0039 N   0  0  0  0  0  0  0  0  0  0  0  0
    3.6492   -3.7256    0.6780 C   0  0  0  0  0  0  0  0  0  0  0  0
    4.1899   -5.1346    0.6897 C   0  0  0  0  0  0  0  0  0  0  0  0
    3.6941   -6.0367    1.6451 C   0  0  0  0  0  0  0  0  0  0  0  0
    4.1097   -7.3664    1.6489 C   0  0  0  0  0  0  0  0  0  0  0  0
    5.0154   -7.8039    0.6904 C   0  0  0  0  0  0  0  0  0  0  0  0
    5.5283   -9.4463    0.6818 Cl  0  0  0  0  0  0  0  0  0  0  0  0
    5.5071   -6.9234   -0.2727 C   0  0  0  0  0  0  0  0  0  0  0  0
    5.1019   -5.5763   -0.2917 C   0  0  0  0  0  0  0  0  0  0  0  0
    5.6016   -4.6163   -1.3690 C   0  0  0  0  0  0  0  0  0  0  0  0
    7.1430   -4.4857   -1.4034 C   0  0  0  0  0  0  0  0  0  0  0  0
    7.4807   -4.2158   -2.8666 C   0  0  0  0  0  0  0  0  0  0  0  0
    6.3817   -4.7746   -3.6045 N   0  0  0  0  0  0  0  0  0  0  0  0
    6.5216   -5.5623   -4.7736 C   0  0  0  0  0  0  0  0  0  0  0  0
    5.8324   -5.1127   -5.9018 C   0  0  0  0  0  0  0  0  0  0  0  0
    5.3630   -5.9159   -6.8778 N   0  0  0  0  0  0  0  0  0  0  0  0
    5.5004   -7.2437   -6.6613 C   0  0  0  0  0  0  0  0  0  0  0  0
    6.1908   -7.8148   -5.5862 C   0  0  0  0  0  0  0  0  0  0  0  0
    6.2482   -9.2058   -5.3844 C   0  0  0  0  0  0  0  0  0  0  0  0
    6.9569   -9.7445   -4.3099 C   0  0  0  0  0  0  0  0  0  0  0  0
    7.6412   -8.9050   -3.4422 C   0  0  0  0  0  0  0  0  0  0  0  0
    7.5560   -7.5241   -3.6097 C   0  0  0  0  0  0  0  0  0  0  0  0
    6.7939   -6.9484   -4.6544 C   0  0  0  0  0  0  0  0  0  0  0  0
    5.3070   -5.1241   -2.7654 C   0  0  0  0  0  0  0  0  0  0  0  0
    4.2807   -5.6935   -3.1037 O   0  0  0  0  0  0  0  0  0  0  0  0
    4.8852   -3.2501   -1.3322 C   0  0  0  0  0  0  0  0  0  0  0  0
  1  2  3  0
  2  3  1  0
  3  4  1  0
  4  5  1  0
  5  6  2  0
  5  7  1  0
  7  8  1  0
  8  9  1  0
  8 33  1  0
  9 10  1  0
 10 11  1  0
 10 16  2  0
 11 12  2  0
 12 13  1  0
 13 14  1  0
 13 15  2  0
 15 16  1  0
 16 17  1  0
 17 18  1  0
 17 31  1  0
 17 33  1  0
 18 19  1  0
 19 20  1  0
 20 21  1  0
 20 31  1  0
 21 22  2  0
 21 30  1  0
 22 23  1  0
 23 24  2  0
 24 25  1  0
 25 26  1  0
 25 30  2  0
 26 27  2  0
 27 28  1  0
 28 29  2  0
 29 30  1  0
 31 32  2  0
M  END
$$$$
