
     RDKit          3D

 35 40  0  0  0  0  0  0  0  0999 V2000
   -2.3696   -0.3833    0.0658 N   0  0  0  0  0  0  0  0  0  0  0  0
   -1.3513    0.0858    0.3851 C   0  0  0  0  0  0  0  0  0  0  0  0
   -0.0830    0.7067    0.7347 C   0  0  0  0  0  0  0  0  0  0  0  0
    0.3225    0.6674    2.1522 N   0  0  0  0  0  0  0  0  0  0  0  0
   -0.0879   -0.3557    2.9878 C   0  0  0  0  0  0  0  0  0  0  0  0
   -1.0615   -0.1478    3.7153 O   0  0  0  0  0  0  0  0  0  0  0  0
    0.8129   -1.5877    3.1658 C   0  0  0  0  0  0  0  0  0  0  0  0
    0.5935   -2.6157    2.1475 N   0  0  0  0  0  0  0  0  0  0  0  0
    0.8031   -3.9845    2.6495 C   0  0  0  0  0  0  0  0  0  0  0  0
    2.2321   -4.5006    2.5964 C   0  0  0  0  0  0  0  0  0  0  0  0
    2.5355   -5.6876    3.2879 C   0  0  0  0  0  0  0  0  0  0  0  0
    3.7906   -6.2860    3.1693 C   0  0  0  0  0  0  0  0  0  0  0  0
    4.7562   -5.7020    2.3580 C   0  0  0  0  0  0  0  0  0  0  0  0
    6.2952   -6.4532    2.1826 Cl  0  0  0  0  0  0  0  0  0  0  0  0
    4.4798   -4.5215    1.6684 C   0  0  0  0  0  0  0  0  0  0  0  0
    3.2127   -3.9132    1.7669 C   0  0  0  0  0  0  0  0  0  0  0  0
    2.8714   -2.6659    0.9608 C   0  0  0  0  0  0  0  0  0  0  0  0
    3.6383   -1.4116    1.4374 C   0  0  0  0  0  0  0  0  0  0  0  0
    4.5425   -0.9806    0.2911 C   0  0  0  0  0  0  0  0  0  0  0  0
    4.0666   -1.6877   -0.8564 N   0  0  0  0  0  0  0  0  0  0  0  0
    4.7475   -1.7975   -2.1029 C   0  0  0  0  0  0  0  0  0  0  0  0
    3.9295   -1.6350   -3.2287 C   0  0  0  0  0  0  0  0  0  0  0  0
    4.0683   -2.3133   -4.3850 N   0  0  0  0  0  0  0  0  0  0  0  0
    5.0075   -3.2832   -4.3777 C   0  0  0  0  0  0  0  0  0  0  0  0
    5.9254   -3.5013   -3.3451 C   0  0  0  0  0  0  0  0  0  0  0  0
    6.8565   -4.5546   -3.3889 C   0  0  0  0  0  0  0  0  0  0  0  0
    7.8016   -4.7163   -2.3764 C   0  0  0  0  0  0  0  0  0  0  0  0
    7.8543   -3.8055   -1.3335 C   0  0  0  0  0  0  0  0  0  0  0  0
    6.8993   -2.7936   -1.2534 C   0  0  0  0  0  0  0  0  0  0  0  0
    5.8712   -2.6578   -2.2171 C   0  0  0  0  0  0  0  0  0  0  0  0
    3.2757   -2.7909   -0.4939 C   0  0  0  0  0  0  0  0  0  0  0  0
    2.9352   -3.7111   -1.2268 O   0  0  0  0  0  0  0  0  0  0  0  0
    1.3359   -2.4652    0.8959 C   0  0  0  0  0  0  0  0  0  0  0  0
    0.9801    0.7955   -0.3527 C   0  0  0  0  0  0  0  0  0  0  0  0
    0.2090    2.0205    0.0017 C   0  0  0  0  0  0  0  0  0  0  0  0
  1  2  3  0
  2  3  1  0
  3  4  1  0
  3 34  1  0
  3 35  1  0
  4  5  1  0
  5  6  2  0
  5  7  1  0
  7  8  1  0
  8  9  1  0
  8 33  1  0
  9 10  1  0
 10 11  2  0
 10 16  1  0
 11 12  1  0
 12 13  2  0
 13 14  1  0
 13 15  1  0
 15 16  2  0
 16 17  1  0
 17 18  1  0
 17 31  1  0
 17 33  1  0
 18 19  1  0
 19 20  1  0
 20 21  1  0
 20 31  1  0
 21 22  2  0
 21 30  1  0
 22 23  1  0
 23 24  2  0
 24 25  1  0
 25 26  1  0
 25 30  2  0
 26 27  2  0
 27 28  1  0
 28 29  2  0
 29 30  1  0
 31 32  2  0
 34 35  1  0
M  END
$$$$
