
     RDKit          3D

 35 39  0  0  0  0  0  0  0  0999 V2000
   -0.5148   -0.9590    1.3007 C   0  0  0  0  0  0  0  0  0  0  0  0
   -0.3554   -1.2346    2.8018 C   0  0  0  0  0  0  0  0  0  0  0  0
    0.0223    0.0867    3.5025 C   0  0  0  0  0  0  0  0  0  0  0  0
   -1.7036   -1.7173    3.3567 C   0  0  0  0  0  0  0  0  0  0  0  0
    0.7651   -2.2675    3.0944 C   0  0  0  0  0  0  0  0  0  0  0  0
    0.7571   -3.4490    2.2469 N   0  0  0  0  0  0  0  0  0  0  0  0
    1.8282   -4.0710    1.6490 C   0  0  0  0  0  0  0  0  0  0  0  0
    1.6387   -5.1356    1.0554 O   0  0  0  0  0  0  0  0  0  0  0  0
    3.2150   -3.3925    1.6653 C   0  0  0  0  0  0  0  0  0  0  0  0
    3.1501   -2.2701    0.7490 N   0  0  0  0  0  0  0  0  0  0  0  0
    3.7594   -1.0153    1.1528 C   0  0  0  0  0  0  0  0  0  0  0  0
    3.0966    0.1001    0.3671 C   0  0  0  0  0  0  0  0  0  0  0  0
    2.9868    1.3805    0.9339 C   0  0  0  0  0  0  0  0  0  0  0  0
    2.2805    2.3875    0.2761 C   0  0  0  0  0  0  0  0  0  0  0  0
    1.7116    2.1304   -0.9661 C   0  0  0  0  0  0  0  0  0  0  0  0
    0.7894    3.3514   -1.7555 Cl  0  0  0  0  0  0  0  0  0  0  0  0
    1.8539    0.8793   -1.5644 C   0  0  0  0  0  0  0  0  0  0  0  0
    2.5374   -0.1615   -0.9089 C   0  0  0  0  0  0  0  0  0  0  0  0
    2.5910   -1.5876   -1.5055 C   0  0  0  0  0  0  0  0  0  0  0  0
    1.1698   -2.1797   -1.6758 C   0  0  0  0  0  0  0  0  0  0  0  0
    1.2662   -2.9240   -2.9906 C   0  0  0  0  0  0  0  0  0  0  0  0
    2.1498   -2.1409   -3.8028 N   0  0  0  0  0  0  0  0  0  0  0  0
    1.7463   -1.2749   -4.8786 C   0  0  0  0  0  0  0  0  0  0  0  0
    2.7435   -0.9528   -5.8104 C   0  0  0  0  0  0  0  0  0  0  0  0
    2.6882    0.0703   -6.6870 N   0  0  0  0  0  0  0  0  0  0  0  0
    1.6145    0.8743   -6.5790 C   0  0  0  0  0  0  0  0  0  0  0  0
    0.5379    0.6580   -5.7185 C   0  0  0  0  0  0  0  0  0  0  0  0
   -0.5026    1.6039   -5.6441 C   0  0  0  0  0  0  0  0  0  0  0  0
   -1.5978    1.4050   -4.8109 C   0  0  0  0  0  0  0  0  0  0  0  0
   -1.6879    0.2335   -4.0830 C   0  0  0  0  0  0  0  0  0  0  0  0
   -0.6475   -0.6989   -4.1368 C   0  0  0  0  0  0  0  0  0  0  0  0
    0.5377   -0.4986   -4.9007 C   0  0  0  0  0  0  0  0  0  0  0  0
    3.1297   -1.5663   -2.9412 C   0  0  0  0  0  0  0  0  0  0  0  0
    4.1829   -1.0522   -3.2826 O   0  0  0  0  0  0  0  0  0  0  0  0
    3.4534   -2.5456   -0.6554 C   0  0  0  0  0  0  0  0  0  0  0  0
  1  2  1  0
  2  3  1  0
  2  4  1  0
  2  5  1  0
  5  6  1  0
  6  7  1  0
  7  8  2  0
  7  9  1  0
  9 10  1  0
 10 11  1  0
 10 35  1  0
 11 12  1  0
 12 13  1  0
 12 18  2  0
 13 14  2  0
 14 15  1  0
 15 16  1  0
 15 17  2  0
 17 18  1  0
 18 19  1  0
 19 20  1  0
 19 33  1  0
 19 35  1  0
 20 21  1  0
 21 22  1  0
 22 23  1  0
 22 33  1  0
 23 24  2  0
 23 32  1  0
 24 25  1  0
 25 26  2  0
 26 27  1  0
 27 28  1  0
 27 32  2  0
 28 29  2  0
 29 30  1  0
 30 31  2  0
 31 32  1  0
 33 34  2  0
M  END
$$$$
