
     RDKit          3D

 32 36  0  0  0  0  0  0  0  0999 V2000
    0.4011    0.2212    1.3794 C   0  0  0  0  0  0  0  0  0  0  0  0
   -0.1975    1.1935    0.4918 N   0  0  0  0  0  0  0  0  0  0  0  0
   -0.7610    1.0150   -0.7420 C   0  0  0  0  0  0  0  0  0  0  0  0
   -1.2592    1.9877   -1.3129 O   0  0  0  0  0  0  0  0  0  0  0  0
   -0.7776   -0.3771   -1.3716 C   0  0  0  0  0  0  0  0  0  0  0  0
    0.3598   -0.7126   -2.2422 N   0  0  0  0  0  0  0  0  0  0  0  0
    1.6532   -0.0941   -1.9453 C   0  0  0  0  0  0  0  0  0  0  0  0
    1.8059    1.3119   -2.4791 C   0  0  0  0  0  0  0  0  0  0  0  0
    2.6998    2.1996   -1.8538 C   0  0  0  0  0  0  0  0  0  0  0  0
    2.9088    3.4822   -2.3632 C   0  0  0  0  0  0  0  0  0  0  0  0
    2.2398    3.8791   -3.5132 C   0  0  0  0  0  0  0  0  0  0  0  0
    2.5048    5.4494   -4.1672 Cl  0  0  0  0  0  0  0  0  0  0  0  0
    1.3599    3.0061   -4.1491 C   0  0  0  0  0  0  0  0  0  0  0  0
    1.1202    1.7138   -3.6400 C   0  0  0  0  0  0  0  0  0  0  0  0
    0.1589    0.7495   -4.3435 C   0  0  0  0  0  0  0  0  0  0  0  0
   -1.2419    1.3663   -4.5653 C   0  0  0  0  0  0  0  0  0  0  0  0
   -1.6633    0.8704   -5.9387 C   0  0  0  0  0  0  0  0  0  0  0  0
   -0.4427    0.6681   -6.6690 N   0  0  0  0  0  0  0  0  0  0  0  0
   -0.0824    1.3015   -7.8958 C   0  0  0  0  0  0  0  0  0  0  0  0
    0.6483    0.5120   -8.7930 C   0  0  0  0  0  0  0  0  0  0  0  0
    1.4884    0.9883   -9.7347 N   0  0  0  0  0  0  0  0  0  0  0  0
    1.6923    2.3206   -9.7156 C   0  0  0  0  0  0  0  0  0  0  0  0
    1.0048    3.2222   -8.8996 C   0  0  0  0  0  0  0  0  0  0  0  0
    1.3166    4.5959   -8.9183 C   0  0  0  0  0  0  0  0  0  0  0  0
    0.6012    5.4994   -8.1378 C   0  0  0  0  0  0  0  0  0  0  0  0
   -0.4443    5.0342   -7.3637 C   0  0  0  0  0  0  0  0  0  0  0  0
   -1.1797    5.8972   -6.6516 F   0  0  0  0  0  0  0  0  0  0  0  0
   -0.7347    3.6751   -7.2946 C   0  0  0  0  0  0  0  0  0  0  0  0
    0.0151    2.7176   -8.0208 C   0  0  0  0  0  0  0  0  0  0  0  0
    0.6363    0.5002   -5.7732 C   0  0  0  0  0  0  0  0  0  0  0  0
    1.7899    0.2383   -6.0842 O   0  0  0  0  0  0  0  0  0  0  0  0
    0.0905   -0.6517   -3.6825 C   0  0  0  0  0  0  0  0  0  0  0  0
  1  2  1  0
  2  3  1  0
  3  4  2  0
  3  5  1  0
  5  6  1  0
  6  7  1  0
  6 32  1  0
  7  8  1  0
  8  9  1  0
  8 14  2  0
  9 10  2  0
 10 11  1  0
 11 12  1  0
 11 13  2  0
 13 14  1  0
 14 15  1  0
 15 16  1  0
 15 30  1  0
 15 32  1  0
 16 17  1  0
 17 18  1  0
 18 19  1  0
 18 30  1  0
 19 20  2  0
 19 29  1  0
 20 21  1  0
 21 22  2  0
 22 23  1  0
 23 24  1  0
 23 29  2  0
 24 25  2  0
 25 26  1  0
 26 27  1  0
 26 28  2  0
 28 29  1  0
 30 31  2  0
M  END
$$$$
