
     RDKit          3D

 34 38  0  0  0  0  0  0  0  0999 V2000
    0.4107   -0.0127    1.8321 C   0  0  0  0  0  0  0  0  0  0  0  0
    0.1722   -1.2975    1.0421 C   0  0  0  0  0  0  0  0  0  0  0  0
    0.7980   -2.4920    1.7644 C   0  0  0  0  0  0  0  0  0  0  0  0
   -1.3224   -1.5559    0.7893 C   0  0  0  0  0  0  0  0  0  0  0  0
   -1.8794   -0.6910   -0.2415 N   0  0  0  0  0  0  0  0  0  0  0  0
   -2.5672   -1.0247   -1.3802 C   0  0  0  0  0  0  0  0  0  0  0  0
   -3.1227   -0.1272   -2.0197 O   0  0  0  0  0  0  0  0  0  0  0  0
   -2.6450   -2.4843   -1.8345 C   0  0  0  0  0  0  0  0  0  0  0  0
   -1.5920   -2.9513   -2.7538 N   0  0  0  0  0  0  0  0  0  0  0  0
   -0.2644   -2.3467   -2.6359 C   0  0  0  0  0  0  0  0  0  0  0  0
   -0.1787   -0.9658   -3.2415 C   0  0  0  0  0  0  0  0  0  0  0  0
    0.6897   -0.0020   -2.6996 C   0  0  0  0  0  0  0  0  0  0  0  0
    0.7744    1.2764   -3.2510 C   0  0  0  0  0  0  0  0  0  0  0  0
    0.0173    1.5869   -4.3710 C   0  0  0  0  0  0  0  0  0  0  0  0
    0.1224    3.1558   -5.0731 Cl  0  0  0  0  0  0  0  0  0  0  0  0
   -0.8185    0.6285   -4.9415 C   0  0  0  0  0  0  0  0  0  0  0  0
   -0.9440   -0.6583   -4.3819 C   0  0  0  0  0  0  0  0  0  0  0  0
   -1.8181   -1.7447   -5.0221 C   0  0  0  0  0  0  0  0  0  0  0  0
   -3.1885   -1.2305   -5.5233 C   0  0  0  0  0  0  0  0  0  0  0  0
   -3.3720   -1.9108   -6.8698 C   0  0  0  0  0  0  0  0  0  0  0  0
   -2.0525   -2.1264   -7.3887 N   0  0  0  0  0  0  0  0  0  0  0  0
   -1.4951   -1.5339   -8.5668 C   0  0  0  0  0  0  0  0  0  0  0  0
   -0.5382   -2.3082   -9.2390 C   0  0  0  0  0  0  0  0  0  0  0  0
    0.4240   -1.8217  -10.0490 N   0  0  0  0  0  0  0  0  0  0  0  0
    0.5017   -0.4786  -10.1162 C   0  0  0  0  0  0  0  0  0  0  0  0
   -0.4061    0.4050   -9.5280 C   0  0  0  0  0  0  0  0  0  0  0  0
   -0.2109    1.7955   -9.6164 C   0  0  0  0  0  0  0  0  0  0  0  0
   -1.1309    2.6839   -9.0680 C   0  0  0  0  0  0  0  0  0  0  0  0
   -2.2747    2.1919   -8.4619 C   0  0  0  0  0  0  0  0  0  0  0  0
   -2.4546    0.8121   -8.3336 C   0  0  0  0  0  0  0  0  0  0  0  0
   -1.5009   -0.1266   -8.8066 C   0  0  0  0  0  0  0  0  0  0  0  0
   -1.1364   -2.1983   -6.3167 C   0  0  0  0  0  0  0  0  0  0  0  0
    0.0436   -2.5249   -6.4009 O   0  0  0  0  0  0  0  0  0  0  0  0
   -1.9823   -3.0336   -4.1646 C   0  0  0  0  0  0  0  0  0  0  0  0
  1  2  1  0
  2  3  1  0
  2  4  1  0
  4  5  1  0
  5  6  1  0
  6  7  2  0
  6  8  1  0
  8  9  1  0
  9 10  1  0
  9 34  1  0
 10 11  1  0
 11 12  1  0
 11 17  2  0
 12 13  2  0
 13 14  1  0
 14 15  1  0
 14 16  2  0
 16 17  1  0
 17 18  1  0
 18 19  1  0
 18 32  1  0
 18 34  1  0
 19 20  1  0
 20 21  1  0
 21 22  1  0
 21 32  1  0
 22 23  2  0
 22 31  1  0
 23 24  1  0
 24 25  2  0
 25 26  1  0
 26 27  1  0
 26 31  2  0
 27 28  2  0
 28 29  1  0
 29 30  2  0
 30 31  1  0
 32 33  2  0
M  END
$$$$
