
     RDKit          3D

 37 42  0  0  0  0  0  0  0  0999 V2000
    1.0061   -0.3756   -0.4308 O   0  0  0  0  0  0  0  0  0  0  0  0
    2.1485   -0.2202   -0.0124 C   0  0  0  0  0  0  0  0  0  0  0  0
    2.6504    1.1060    0.5747 C   0  0  0  0  0  0  0  0  0  0  0  0
    3.7311    0.8624    1.5481 N   0  0  0  0  0  0  0  0  0  0  0  0
    3.2803    0.5033    2.8822 C   0  0  0  0  0  0  0  0  0  0  0  0
    2.5775    1.6366    3.5685 C   0  0  0  0  0  0  0  0  0  0  0  0
    1.4811    1.2621    4.3865 C   0  0  0  0  0  0  0  0  0  0  0  0
    0.6240    2.2054    4.9362 C   0  0  0  0  0  0  0  0  0  0  0  0
    0.8333    3.5369    4.6428 C   0  0  0  0  0  0  0  0  0  0  0  0
   -0.2444    4.7282    5.2633 Cl  0  0  0  0  0  0  0  0  0  0  0  0
    1.9200    3.9282    3.8507 C   0  0  0  0  0  0  0  0  0  0  0  0
    2.8941    3.0042    3.3571 C   0  0  0  0  0  0  0  0  0  0  0  0
    4.3426    3.4792    2.3947 C   0  0  0  0  0  0  0  0  0  0  0  0
    3.2352    4.4512    0.9514 C   0  0  0  0  0  0  0  0  0  0  0  0
    4.2865    6.1219    0.5184 C   0  0  0  0  0  0  0  0  0  0  0  0
    5.9860    6.1458    1.3686 N   0  0  0  0  0  0  0  0  0  0  0  0
    7.0514    4.9697    0.8236 C   0  0  0  0  0  0  0  0  0  0  0  0
    8.3907    4.9859    1.1953 C   0  0  0  0  0  0  0  0  0  0  0  0
    9.0234    4.0262    1.9960 N   0  0  0  0  0  0  0  0  0  0  0  0
    8.2720    3.1771    2.7877 C   0  0  0  0  0  0  0  0  0  0  0  0
    6.8962    3.2084    2.7486 C   0  0  0  0  0  0  0  0  0  0  0  0
    5.8499    3.4267    4.1514 C   0  0  0  0  0  0  0  0  0  0  0  0
    4.5446    4.5972    4.1876 C   0  0  0  0  0  0  0  0  0  0  0  0
    4.1277    5.2769    2.5776 C   0  0  0  0  0  0  0  0  0  0  0  0
    5.2005    4.4072    1.1110 C   0  0  0  0  0  0  0  0  0  0  0  0
    6.4922    3.8141    1.2721 C   0  0  0  0  0  0  0  0  0  0  0  0
    5.8717    5.0894    2.7750 C   0  0  0  0  0  0  0  0  0  0  0  0
    6.5787    5.5785    3.6916 O   0  0  0  0  0  0  0  0  0  0  0  0
    4.6939    1.9534    1.6703 C   0  0  0  0  0  0  0  0  0  0  0  0
    3.1387   -1.1769   -0.1294 N   0  0  0  0  0  0  0  0  0  0  0  0
    2.8952   -2.4989   -0.6510 C   0  0  0  0  0  0  0  0  0  0  0  0
    2.9598   -2.4049   -2.1666 C   0  0  0  0  0  0  0  0  0  0  0  0
    4.3352   -2.0243   -2.7804 C   0  0  0  0  0  0  0  0  0  0  0  0
    4.0265   -3.1111   -4.1404 S   0  0  0  0  0  0  0  0  0  0  0  0
    5.1590   -3.9755   -4.3942 O   0  0  0  0  0  0  0  0  0  0  0  0
    3.2759   -2.4596   -5.1921 O   0  0  0  0  0  0  0  0  0  0  0  0
    2.9694   -3.7780   -2.8886 C   0  0  0  0  0  0  0  0  0  0  0  0
  1  2  2  0
  2  3  1  0
  2 30  1  0
  3  4  1  0
  4  5  1  0
  4 29  1  0
  5  6  1  0
  6  7  2  0
  6 12  1  0
  7  8  1  0
  8  9  2  0
  9 10  1  0
  9 11  1  0
 11 12  2  0
 12 13  1  0
 13 14  1  0
 13 27  1  0
 13 29  1  0
 14 15  1  0
 15 16  1  0
 16 17  1  0
 16 27  1  0
 17 18  2  0
 17 26  1  0
 18 19  1  0
 19 20  2  0
 20 21  1  0
 21 22  1  0
 21 26  2  0
 22 23  2  0
 23 24  1  0
 24 25  2  0
 25 26  1  0
 27 28  2  0
 30 31  1  0
 31 32  1  0
 32 33  1  0
 32 37  1  0
 33 34  1  0
 34 35  2  0
 34 36  2  0
 34 37  1  0
M  END
$$$$
