
     RDKit          3D

 36 41  0  0  0  0  0  0  0  0999 V2000
   -0.5995   -0.9676   -0.0936 C   0  0  0  0  0  0  0  0  0  0  0  0
    0.6186   -0.6360    0.7873 C   0  0  0  0  0  0  0  0  0  0  0  0
    0.2639   -0.7972    2.2764 C   0  0  0  0  0  0  0  0  0  0  0  0
    1.2391   -0.1086    3.1004 N   0  0  0  0  0  0  0  0  0  0  0  0
    1.1226    1.0443    3.8310 C   0  0  0  0  0  0  0  0  0  0  0  0
    2.1451    1.5129    4.3386 O   0  0  0  0  0  0  0  0  0  0  0  0
   -0.2464    1.7110    4.0327 C   0  0  0  0  0  0  0  0  0  0  0  0
   -0.4791    2.7023    2.9855 N   0  0  0  0  0  0  0  0  0  0  0  0
   -0.6297    4.0900    3.4289 C   0  0  0  0  0  0  0  0  0  0  0  0
   -2.0566    4.6123    3.5077 C   0  0  0  0  0  0  0  0  0  0  0  0
   -2.2731    5.8925    4.0498 C   0  0  0  0  0  0  0  0  0  0  0  0
   -3.5482    6.4644    4.0624 C   0  0  0  0  0  0  0  0  0  0  0  0
   -4.6237    5.7617    3.5348 C   0  0  0  0  0  0  0  0  0  0  0  0
   -6.1975    6.4572    3.5410 Cl  0  0  0  0  0  0  0  0  0  0  0  0
   -4.4315    4.4975    2.9865 C   0  0  0  0  0  0  0  0  0  0  0  0
   -3.1483    3.9153    2.9510 C   0  0  0  0  0  0  0  0  0  0  0  0
   -2.9297    2.5618    2.2993 C   0  0  0  0  0  0  0  0  0  0  0  0
   -3.6009    1.4279    3.1111 C   0  0  0  0  0  0  0  0  0  0  0  0
   -3.9332    0.3490    2.0895 C   0  0  0  0  0  0  0  0  0  0  0  0
   -4.0699    1.0764    0.8608 N   0  0  0  0  0  0  0  0  0  0  0  0
   -4.9675    0.7261   -0.1659 C   0  0  0  0  0  0  0  0  0  0  0  0
   -4.4359    0.1499   -1.3179 C   0  0  0  0  0  0  0  0  0  0  0  0
   -5.0630    0.1230   -2.5116 N   0  0  0  0  0  0  0  0  0  0  0  0
   -6.2485    0.7722   -2.5702 C   0  0  0  0  0  0  0  0  0  0  0  0
   -6.8924    1.3668   -1.4791 C   0  0  0  0  0  0  0  0  0  0  0  0
   -8.1127    2.0537   -1.6095 C   0  0  0  0  0  0  0  0  0  0  0  0
   -8.7383    2.6144   -0.4954 C   0  0  0  0  0  0  0  0  0  0  0  0
   -8.1635    2.4825    0.7626 C   0  0  0  0  0  0  0  0  0  0  0  0
   -6.9348    1.8374    0.8971 C   0  0  0  0  0  0  0  0  0  0  0  0
   -6.2601    1.2955   -0.2224 C   0  0  0  0  0  0  0  0  0  0  0  0
   -3.6336    2.4060    0.9597 C   0  0  0  0  0  0  0  0  0  0  0  0
   -3.7343    3.2665    0.1027 O   0  0  0  0  0  0  0  0  0  0  0  0
   -1.4384    2.3592    1.9467 C   0  0  0  0  0  0  0  0  0  0  0  0
    1.3603    0.6533    0.2925 C   0  0  0  0  0  0  0  0  0  0  0  0
    2.2700   -0.2479   -0.5632 C   0  0  0  0  0  0  0  0  0  0  0  0
    1.8835   -1.4317    0.3417 C   0  0  0  0  0  0  0  0  0  0  0  0
  1  2  1  0
  2  3  1  0
  2 34  1  0
  2 36  1  0
  3  4  1  0
  4  5  1  0
  5  6  2  0
  5  7  1  0
  7  8  1  0
  8  9  1  0
  8 33  1  0
  9 10  1  0
 10 11  2  0
 10 16  1  0
 11 12  1  0
 12 13  2  0
 13 14  1  0
 13 15  1  0
 15 16  2  0
 16 17  1  0
 17 18  1  0
 17 31  1  0
 17 33  1  0
 18 19  1  0
 19 20  1  0
 20 21  1  0
 20 31  1  0
 21 22  2  0
 21 30  1  0
 22 23  1  0
 23 24  2  0
 24 25  1  0
 25 26  1  0
 25 30  2  0
 26 27  2  0
 27 28  1  0
 28 29  2  0
 29 30  1  0
 31 32  2  0
 34 35  1  0
 35 36  1  0
M  END
$$$$
