
     RDKit          3D

 36 41  0  0  0  0  0  0  0  0999 V2000
   -0.5362   -0.9224   -0.5095 C   0  0  0  0  0  0  0  0  0  0  0  0
   -0.9223   -1.3928    0.7761 O   0  0  0  0  0  0  0  0  0  0  0  0
    0.2835   -1.6302    1.9359 C   0  0  0  0  0  0  0  0  0  0  0  0
   -0.0235   -1.0158    4.0035 C   0  0  0  0  0  0  0  0  0  0  0  0
    0.4743    0.2784    4.8154 N   0  0  0  0  0  0  0  0  0  0  0  0
   -0.2073    1.3936    5.2123 C   0  0  0  0  0  0  0  0  0  0  0  0
    0.3821    2.1776    5.9636 O   0  0  0  0  0  0  0  0  0  0  0  0
   -1.6308    1.6893    4.7208 C   0  0  0  0  0  0  0  0  0  0  0  0
   -1.7884    1.9980    3.2801 N   0  0  0  0  0  0  0  0  0  0  0  0
   -2.2401    0.8544    2.4778 C   0  0  0  0  0  0  0  0  0  0  0  0
   -1.1977   -0.2063    2.5345 C   0  0  0  0  0  0  0  0  0  0  0  0
   -1.5712   -1.9454    2.9443 C   0  0  0  0  0  0  0  0  0  0  0  0
   -0.2385   -3.0246    3.4753 C   0  0  0  0  0  0  0  0  0  0  0  0
    1.4643   -2.3936    3.5550 C   0  0  0  0  0  0  0  0  0  0  0  0
    2.7141   -3.3666    4.2321 Cl  0  0  0  0  0  0  0  0  0  0  0  0
    1.8245   -0.6969    3.0606 C   0  0  0  0  0  0  0  0  0  0  0  0
    0.4997    0.3924    2.4918 C   0  0  0  0  0  0  0  0  0  0  0  0
    0.6538    1.9160    2.2729 C   0  0  0  0  0  0  0  0  0  0  0  0
    1.9154    2.5057    2.9647 C   0  0  0  0  0  0  0  0  0  0  0  0
    2.7192    3.1792    1.8689 C   0  0  0  0  0  0  0  0  0  0  0  0
    2.2534    2.5979    0.6516 N   0  0  0  0  0  0  0  0  0  0  0  0
    3.0547    2.0723   -0.3965 C   0  0  0  0  0  0  0  0  0  0  0  0
    2.6371    2.3039   -1.7110 C   0  0  0  0  0  0  0  0  0  0  0  0
    3.2395    1.8075   -2.8151 N   0  0  0  0  0  0  0  0  0  0  0  0
    4.2953    0.9941   -2.6058 C   0  0  0  0  0  0  0  0  0  0  0  0
    4.7944    0.6471   -1.3488 C   0  0  0  0  0  0  0  0  0  0  0  0
    5.8575   -0.2733   -1.2338 C   0  0  0  0  0  0  0  0  0  0  0  0
    6.3282   -0.6687    0.0143 C   0  0  0  0  0  0  0  0  0  0  0  0
    5.7400   -0.1463    1.1570 C   0  0  0  0  0  0  0  0  0  0  0  0
    4.6813    0.7628    1.0547 C   0  0  0  0  0  0  0  0  0  0  0  0
    4.1737    1.2033   -0.1967 C   0  0  0  0  0  0  0  0  0  0  0  0
    0.9276    2.1751    0.7862 C   0  0  0  0  0  0  0  0  0  0  0  0
    0.1367    1.9836   -0.1271 O   0  0  0  0  0  0  0  0  0  0  0  0
   -0.6509    2.7098    2.6568 C   0  0  0  0  0  0  0  0  0  0  0  0
    0.8342   -3.1230    1.2327 C   0  0  0  0  0  0  0  0  0  0  0  0
    1.7077   -1.9588    0.9942 C   0  0  0  0  0  0  0  0  0  0  0  0
  1  2  1  0
  2  3  1  0
  3  4  1  0
  3 35  1  0
  3 36  1  0
  4  5  1  0
  5  6  1  0
  6  7  2  0
  6  8  1  0
  8  9  1  0
  9 10  1  0
  9 34  1  0
 10 11  1  0
 11 12  2  0
 11 17  1  0
 12 13  1  0
 13 14  2  0
 14 15  1  0
 14 16  1  0
 16 17  2  0
 17 18  1  0
 18 19  1  0
 18 32  1  0
 18 34  1  0
 19 20  1  0
 20 21  1  0
 21 22  1  0
 21 32  1  0
 22 23  2  0
 22 31  1  0
 23 24  1  0
 24 25  2  0
 25 26  1  0
 26 27  1  0
 26 31  2  0
 27 28  2  0
 28 29  1  0
 29 30  2  0
 30 31  1  0
 32 33  2  0
 35 36  1  0
M  END
$$$$
