
     RDKit          3D

 32 36  0  0  0  0  0  0  0  0999 V2000
    1.8240   -2.5703   -0.4185 C   0  0  0  0  0  0  0  0  0  0  0  0
    1.6299   -3.7777    0.3466 N   0  0  0  0  0  0  0  0  0  0  0  0
    1.1986   -4.0070    1.6131 C   0  0  0  0  0  0  0  0  0  0  0  0
    1.1326   -5.1881    1.9689 O   0  0  0  0  0  0  0  0  0  0  0  0
    0.6832   -2.9169    2.5330 C   0  0  0  0  0  0  0  0  0  0  0  0
    1.6065   -1.7416    2.8772 C   0  0  0  0  0  0  0  0  0  0  0  0
    0.8379   -0.4794    2.8442 N   0  0  0  0  0  0  0  0  0  0  0  0
    1.5298    0.6326    3.5252 C   0  0  0  0  0  0  0  0  0  0  0  0
    0.7910    1.9593    3.3806 C   0  0  0  0  0  0  0  0  0  0  0  0
    1.0970    3.0214    4.2476 C   0  0  0  0  0  0  0  0  0  0  0  0
    0.4684    4.2629    4.1088 C   0  0  0  0  0  0  0  0  0  0  0  0
   -0.4654    4.4575    3.0972 C   0  0  0  0  0  0  0  0  0  0  0  0
   -1.2469    5.9810    2.9241 Cl  0  0  0  0  0  0  0  0  0  0  0  0
   -0.7697    3.4246    2.2165 C   0  0  0  0  0  0  0  0  0  0  0  0
   -0.1409    2.1712    2.3402 C   0  0  0  0  0  0  0  0  0  0  0  0
   -0.4499    1.0479    1.3671 C   0  0  0  0  0  0  0  0  0  0  0  0
   -1.8956    0.5219    1.5033 C   0  0  0  0  0  0  0  0  0  0  0  0
   -2.2552    0.0235    0.1074 C   0  0  0  0  0  0  0  0  0  0  0  0
   -1.4048    0.7725   -0.7810 N   0  0  0  0  0  0  0  0  0  0  0  0
   -1.8389    1.3554   -1.9940 C   0  0  0  0  0  0  0  0  0  0  0  0
   -1.1593    0.9732   -3.1517 C   0  0  0  0  0  0  0  0  0  0  0  0
   -1.1067    1.7061   -4.2825 N   0  0  0  0  0  0  0  0  0  0  0  0
   -1.6884    2.9250   -4.2199 C   0  0  0  0  0  0  0  0  0  0  0  0
   -2.4058    3.4172   -3.1238 C   0  0  0  0  0  0  0  0  0  0  0  0
   -2.9398    4.7187   -3.1060 C   0  0  0  0  0  0  0  0  0  0  0  0
   -3.6577    5.1824   -2.0036 C   0  0  0  0  0  0  0  0  0  0  0  0
   -3.8716    4.3463   -0.9170 C   0  0  0  0  0  0  0  0  0  0  0  0
   -3.3170    3.0674   -0.9109 C   0  0  0  0  0  0  0  0  0  0  0  0
   -2.5437    2.5854   -1.9945 C   0  0  0  0  0  0  0  0  0  0  0  0
   -0.3982    1.4687   -0.0864 C   0  0  0  0  0  0  0  0  0  0  0  0
    0.4191    2.2320   -0.5731 O   0  0  0  0  0  0  0  0  0  0  0  0
    0.5923   -0.0726    1.4559 C   0  0  0  0  0  0  0  0  0  0  0  0
  1  2  1  0
  2  3  1  0
  3  4  2  0
  3  5  1  0
  5  6  1  0
  6  7  1  0
  7  8  1  0
  7 32  1  0
  8  9  1  0
  9 10  1  0
  9 15  2  0
 10 11  2  0
 11 12  1  0
 12 13  1  0
 12 14  2  0
 14 15  1  0
 15 16  1  0
 16 17  1  0
 16 30  1  0
 16 32  1  0
 17 18  1  0
 18 19  1  0
 19 20  1  0
 19 30  1  0
 20 21  2  0
 20 29  1  0
 21 22  1  0
 22 23  2  0
 23 24  1  0
 24 25  1  0
 24 29  2  0
 25 26  2  0
 26 27  1  0
 27 28  2  0
 28 29  1  0
 30 31  2  0
M  END
$$$$
