
 OpenBabel06282218373D

 57 61  0  0  0  0  0  0  0  0999 V2000
    1.1414    1.0571    0.2881 N   0  0  0  0  0  0  0  0  0  0  0  0
    2.2783    0.8444    0.1896 C   0  0  0  0  0  0  0  0  0  0  0  0
    3.7160    0.6185    0.1386 C   0  0  0  0  0  0  0  0  0  0  0  0
    4.2557    0.2757   -1.2603 C   0  0  0  0  0  0  0  0  0  0  0  0
    3.3745   -0.9752   -2.2019 S   0  0  0  0  0  0  0  0  0  0  0  0
    2.0710   -1.2185   -1.6300 O   0  0  0  0  0  0  0  0  0  0  0  0
    3.5104   -0.6409   -3.6043 O   0  0  0  0  0  0  0  0  0  0  0  0
    4.2500   -2.4264   -1.9824 N   0  0  0  0  0  0  0  0  0  0  0  0
    4.4681   -2.7719   -0.5776 C   0  0  0  0  0  0  0  0  0  0  0  0
    4.9086   -4.1650   -0.2673 C   0  0  0  0  0  0  0  0  0  0  0  0
    5.6274   -4.3901    0.9234 C   0  0  0  0  0  0  0  0  0  0  0  0
    6.0031   -5.6758    1.2919 C   0  0  0  0  0  0  0  0  0  0  0  0
    5.6486   -6.7425    0.4745 C   0  0  0  0  0  0  0  0  0  0  0  0
    6.0956   -8.3380    0.9385 Cl  0  0  0  0  0  0  0  0  0  0  0  0
    4.9222   -6.5312   -0.7049 C   0  0  0  0  0  0  0  0  0  0  0  0
    4.5298   -5.2344   -1.0836 C   0  0  0  0  0  0  0  0  0  0  0  0
    3.7968   -4.9697   -2.3799 C   0  0  0  0  0  0  0  0  0  0  0  0
    2.4175   -5.6169   -2.5731 C   0  0  0  0  0  0  0  0  0  0  0  0
    2.2396   -6.4910   -3.4264 O   0  0  0  0  0  0  0  0  0  0  0  0
    1.3087   -5.1200   -1.8814 N   0  0  0  0  0  0  0  0  0  0  0  0
    1.2073   -5.5992   -0.5370 C   0  0  0  0  0  0  0  0  0  0  0  0
    1.6496   -4.7925    0.4993 C   0  0  0  0  0  0  0  0  0  0  0  0
    2.1624   -5.2844    1.6444 N   0  0  0  0  0  0  0  0  0  0  0  0
    2.2789   -6.6348    1.7117 C   0  0  0  0  0  0  0  0  0  0  0  0
    1.7646   -7.5303    0.7627 C   0  0  0  0  0  0  0  0  0  0  0  0
    1.9682   -8.9207    0.8038 C   0  0  0  0  0  0  0  0  0  0  0  0
    1.3733   -9.7437   -0.1502 C   0  0  0  0  0  0  0  0  0  0  0  0
    1.6229  -11.0586   -0.1366 F   0  0  0  0  0  0  0  0  0  0  0  0
    0.5280   -9.2263   -1.1178 C   0  0  0  0  0  0  0  0  0  0  0  0
    0.3830   -7.8483   -1.2127 C   0  0  0  0  0  0  0  0  0  0  0  0
    1.0714   -6.9850   -0.3271 C   0  0  0  0  0  0  0  0  0  0  0  0
    3.6798   -3.5120   -2.8502 C   0  0  0  0  0  0  0  0  0  0  0  0
    4.4941    1.8766    0.6937 C   0  0  0  0  0  0  0  0  0  0  0  0
    5.4372    0.9096    1.4287 C   0  0  0  0  0  0  0  0  0  0  0  0
    4.2738   -0.0953    1.4347 C   0  0  0  0  0  0  0  0  0  0  0  0
    4.1837    1.1724   -1.8917 H   0  0  0  0  0  0  0  0  0  0  0  0
    5.3157    0.0008   -1.2561 H   0  0  0  0  0  0  0  0  0  0  0  0
    5.2842   -2.1190   -0.2519 H   0  0  0  0  0  0  0  0  0  0  0  0
    3.5734   -2.5644    0.0149 H   0  0  0  0  0  0  0  0  0  0  0  0
    5.8868   -3.5591    1.5780 H   0  0  0  0  0  0  0  0  0  0  0  0
    6.5563   -5.8332    2.2143 H   0  0  0  0  0  0  0  0  0  0  0  0
    4.6628   -7.3857   -1.3265 H   0  0  0  0  0  0  0  0  0  0  0  0
    4.4295   -5.4627   -3.1356 H   0  0  0  0  0  0  0  0  0  0  0  0
    0.5309   -5.5103   -2.4104 H   0  0  0  0  0  0  0  0  0  0  0  0
    1.6802   -3.7128    0.3919 H   0  0  0  0  0  0  0  0  0  0  0  0
    2.8365   -6.9929    2.5733 H   0  0  0  0  0  0  0  0  0  0  0  0
    2.6211   -9.3691    1.5460 H   0  0  0  0  0  0  0  0  0  0  0  0
    0.0266   -9.8843   -1.8203 H   0  0  0  0  0  0  0  0  0  0  0  0
   -0.2587   -7.4497   -1.9965 H   0  0  0  0  0  0  0  0  0  0  0  0
    2.6336   -3.2818   -3.0870 H   0  0  0  0  0  0  0  0  0  0  0  0
    4.2029   -3.4316   -3.8131 H   0  0  0  0  0  0  0  0  0  0  0  0
    4.9722    2.5287   -0.0426 H   0  0  0  0  0  0  0  0  0  0  0  0
    3.9139    2.5074    1.3806 H   0  0  0  0  0  0  0  0  0  0  0  0
    5.7877    1.2366    2.4105 H   0  0  0  0  0  0  0  0  0  0  0  0
    6.3014    0.5889    0.8359 H   0  0  0  0  0  0  0  0  0  0  0  0
    3.6306    0.0046    2.3201 H   0  0  0  0  0  0  0  0  0  0  0  0
    4.5840   -1.1354    1.3965 H   0  0  0  0  0  0  0  0  0  0  0  0
  1  2  3  0  0  0  0
  2  3  1  0  0  0  0
  3  4  1  0  0  0  0
  3 33  1  0  0  0  0
  3 35  1  0  0  0  0
  4  5  1  0  0  0  0
  4 36  1  0  0  0  0
  4 37  1  0  0  0  0
  5  6  2  0  0  0  0
  5  7  2  0  0  0  0
  5  8  1  0  0  0  0
  8  9  1  0  0  0  0
  8 32  1  0  0  0  0
  9 10  1  0  0  0  0
  9 38  1  0  0  0  0
  9 39  1  0  0  0  0
 10 11  1  0  0  0  0
 10 16  2  0  0  0  0
 11 12  2  0  0  0  0
 11 40  1  0  0  0  0
 12 13  1  0  0  0  0
 12 41  1  0  0  0  0
 13 14  1  0  0  0  0
 13 15  2  0  0  0  0
 15 16  1  0  0  0  0
 15 42  1  0  0  0  0
 16 17  1  0  0  0  0
 17 18  1  0  0  0  0
 17 32  1  0  0  0  0
 17 43  1  0  0  0  0
 18 19  2  0  0  0  0
 18 20  1  0  0  0  0
 20 21  1  0  0  0  0
 20 44  1  0  0  0  0
 21 22  1  0  0  0  0
 21 31  2  0  0  0  0
 22 23  2  0  0  0  0
 22 45  1  0  0  0  0
 23 24  1  0  0  0  0
 24 25  2  0  0  0  0
 24 46  1  0  0  0  0
 25 26  1  0  0  0  0
 25 31  1  0  0  0  0
 26 27  2  0  0  0  0
 26 47  1  0  0  0  0
 27 28  1  0  0  0  0
 27 29  1  0  0  0  0
 29 30  2  0  0  0  0
 29 48  1  0  0  0  0
 30 31  1  0  0  0  0
 30 49  1  0  0  0  0
 32 50  1  0  0  0  0
 32 51  1  0  0  0  0
 33 34  1  0  0  0  0
 33 52  1  0  0  0  0
 33 53  1  0  0  0  0
 34 35  1  0  0  0  0
 34 54  1  0  0  0  0
 34 55  1  0  0  0  0
 35 56  1  0  0  0  0
 35 57  1  0  0  0  0
M  END
$$$$
