
 OpenBabel06282218373D

 60 64  0  0  0  0  0  0  0  0999 V2000
    0.9417   -0.0562    0.0587 N   0  0  0  0  0  0  0  0  0  0  0  0
    2.2026   -0.0562    0.0587 C   0  0  0  0  0  0  0  0  0  0  0  0
    3.7226   -0.0562    0.0587 C   0  0  0  0  0  0  0  0  0  0  0  0
    4.3631   -0.2679   -1.3247 C   0  0  0  0  0  0  0  0  0  0  0  0
    3.6475   -1.4351   -2.4863 S   0  0  0  0  0  0  0  0  0  0  0  0
    2.2956   -1.7742   -2.1152 O   0  0  0  0  0  0  0  0  0  0  0  0
    3.9482   -0.9493   -3.8160 O   0  0  0  0  0  0  0  0  0  0  0  0
    4.5657   -2.8370   -2.2706 N   0  0  0  0  0  0  0  0  0  0  0  0
    4.6405   -3.3051   -0.8919 C   0  0  0  0  0  0  0  0  0  0  0  0
    4.9431   -4.7434   -0.6474 C   0  0  0  0  0  0  0  0  0  0  0  0
    5.5101   -5.1107    0.5852 C   0  0  0  0  0  0  0  0  0  0  0  0
    5.7063   -6.4494    0.8944 C   0  0  0  0  0  0  0  0  0  0  0  0
    5.3223   -7.4204   -0.0246 C   0  0  0  0  0  0  0  0  0  0  0  0
    5.5470   -9.0802    0.3675 Cl  0  0  0  0  0  0  0  0  0  0  0  0
    4.7468   -7.0624   -1.2498 C   0  0  0  0  0  0  0  0  0  0  0  0
    4.5403   -5.7123   -1.5700 C   0  0  0  0  0  0  0  0  0  0  0  0
    3.9496   -5.2743   -2.8924 C   0  0  0  0  0  0  0  0  0  0  0  0
    2.4453   -5.4069   -3.1492 C   0  0  0  0  0  0  0  0  0  0  0  0
    2.0421   -5.7345   -4.2725 O   0  0  0  0  0  0  0  0  0  0  0  0
    1.5007   -5.0185   -2.2232 N   0  0  0  0  0  0  0  0  0  0  0  0
    1.4361   -5.7172   -0.9906 C   0  0  0  0  0  0  0  0  0  0  0  0
    1.6464   -5.0080    0.1851 C   0  0  0  0  0  0  0  0  0  0  0  0
    1.8632   -5.5891    1.3824 N   0  0  0  0  0  0  0  0  0  0  0  0
    1.8417   -6.9433    1.3971 C   0  0  0  0  0  0  0  0  0  0  0  0
    1.5319   -7.7532    0.2976 C   0  0  0  0  0  0  0  0  0  0  0  0
    1.5072   -9.1574    0.3784 C   0  0  0  0  0  0  0  0  0  0  0  0
    1.1363   -9.9294   -0.7231 C   0  0  0  0  0  0  0  0  0  0  0  0
    0.7723   -9.3102   -1.9119 C   0  0  0  0  0  0  0  0  0  0  0  0
    0.8414   -7.9216   -2.0182 C   0  0  0  0  0  0  0  0  0  0  0  0
    1.2574   -7.1180   -0.9287 C   0  0  0  0  0  0  0  0  0  0  0  0
    4.4083   -3.8732   -3.3378 C   0  0  0  0  0  0  0  0  0  0  0  0
    4.1523    1.3690    0.5477 C   0  0  0  0  0  0  0  0  0  0  0  0
    5.5513    1.1953    1.1298 C   0  0  0  0  0  0  0  0  0  0  0  0
    5.6103   -0.2504    1.6094 C   0  0  0  0  0  0  0  0  0  0  0  0
    4.2469   -0.8453    1.2724 C   0  0  0  0  0  0  0  0  0  0  0  0
    4.2947    0.6774   -1.8834 H   0  0  0  0  0  0  0  0  0  0  0  0
    5.4357   -0.4810   -1.2617 H   0  0  0  0  0  0  0  0  0  0  0  0
    5.4387   -2.7203   -0.4231 H   0  0  0  0  0  0  0  0  0  0  0  0
    3.6918   -3.1032   -0.3910 H   0  0  0  0  0  0  0  0  0  0  0  0
    5.7779   -4.3521    1.3193 H   0  0  0  0  0  0  0  0  0  0  0  0
    6.1388   -6.7222    1.8531 H   0  0  0  0  0  0  0  0  0  0  0  0
    4.4500   -7.8428   -1.9465 H   0  0  0  0  0  0  0  0  0  0  0  0
    4.3907   -5.9651   -3.6288 H   0  0  0  0  0  0  0  0  0  0  0  0
    0.6142   -5.1093   -2.7174 H   0  0  0  0  0  0  0  0  0  0  0  0
    1.6812   -3.9225    0.1816 H   0  0  0  0  0  0  0  0  0  0  0  0
    2.0811   -7.3821    2.3626 H   0  0  0  0  0  0  0  0  0  0  0  0
    1.7811   -9.6597    1.3036 H   0  0  0  0  0  0  0  0  0  0  0  0
    1.1184  -11.0136   -0.6489 H   0  0  0  0  0  0  0  0  0  0  0  0
    0.4424   -9.9024   -2.7621 H   0  0  0  0  0  0  0  0  0  0  0  0
    0.5456   -7.4711   -2.9643 H   0  0  0  0  0  0  0  0  0  0  0  0
    3.7492   -3.5057   -4.1347 H   0  0  0  0  0  0  0  0  0  0  0  0
    5.4003   -3.9622   -3.8005 H   0  0  0  0  0  0  0  0  0  0  0  0
    4.1276    2.1315   -0.2389 H   0  0  0  0  0  0  0  0  0  0  0  0
    3.4816    1.7259    1.3431 H   0  0  0  0  0  0  0  0  0  0  0  0
    5.7343    1.9045    1.9437 H   0  0  0  0  0  0  0  0  0  0  0  0
    6.3142    1.3691    0.3630 H   0  0  0  0  0  0  0  0  0  0  0  0
    5.8117   -0.3109    2.6842 H   0  0  0  0  0  0  0  0  0  0  0  0
    6.4109   -0.7893    1.0919 H   0  0  0  0  0  0  0  0  0  0  0  0
    3.5848   -0.6781    2.1361 H   0  0  0  0  0  0  0  0  0  0  0  0
    4.2845   -1.9239    1.1687 H   0  0  0  0  0  0  0  0  0  0  0  0
  1  2  3  0  0  0  0
  2  3  1  0  0  0  0
  3  4  1  0  0  0  0
  3 32  1  0  0  0  0
  3 35  1  0  0  0  0
  4  5  1  0  0  0  0
  4 36  1  0  0  0  0
  4 37  1  0  0  0  0
  5  6  2  0  0  0  0
  5  7  2  0  0  0  0
  5  8  1  0  0  0  0
  8  9  1  0  0  0  0
  8 31  1  0  0  0  0
  9 10  1  0  0  0  0
  9 38  1  0  0  0  0
  9 39  1  0  0  0  0
 10 11  1  0  0  0  0
 10 16  2  0  0  0  0
 11 12  2  0  0  0  0
 11 40  1  0  0  0  0
 12 13  1  0  0  0  0
 12 41  1  0  0  0  0
 13 14  1  0  0  0  0
 13 15  2  0  0  0  0
 15 16  1  0  0  0  0
 15 42  1  0  0  0  0
 16 17  1  0  0  0  0
 17 18  1  0  0  0  0
 17 31  1  0  0  0  0
 17 43  1  0  0  0  0
 18 19  2  0  0  0  0
 18 20  1  0  0  0  0
 20 21  1  0  0  0  0
 20 44  1  0  0  0  0
 21 22  1  0  0  0  0
 21 30  2  0  0  0  0
 22 23  2  0  0  0  0
 22 45  1  0  0  0  0
 23 24  1  0  0  0  0
 24 25  2  0  0  0  0
 24 46  1  0  0  0  0
 25 26  1  0  0  0  0
 25 30  1  0  0  0  0
 26 27  2  0  0  0  0
 26 47  1  0  0  0  0
 27 28  1  0  0  0  0
 27 48  1  0  0  0  0
 28 29  2  0  0  0  0
 28 49  1  0  0  0  0
 29 30  1  0  0  0  0
 29 50  1  0  0  0  0
 31 51  1  0  0  0  0
 31 52  1  0  0  0  0
 32 33  1  0  0  0  0
 32 53  1  0  0  0  0
 32 54  1  0  0  0  0
 33 34  1  0  0  0  0
 33 55  1  0  0  0  0
 33 56  1  0  0  0  0
 34 35  1  0  0  0  0
 34 57  1  0  0  0  0
 34 58  1  0  0  0  0
 35 59  1  0  0  0  0
 35 60  1  0  0  0  0
M  END
$$$$
