
 OpenBabel06282218373D

 61 65  0  0  0  0  0  0  0  0999 V2000
    1.0740    0.0543   -0.0397 N   0  0  0  0  0  0  0  0  0  0  0  0
    2.3350    0.0543   -0.0397 C   0  0  0  0  0  0  0  0  0  0  0  0
    3.8550    0.0543   -0.0397 C   0  0  0  0  0  0  0  0  0  0  0  0
    4.2757    0.3361    1.4214 C   0  0  0  0  0  0  0  0  0  0  0  0
    3.6757    1.8358    2.2093 S   0  0  0  0  0  0  0  0  0  0  0  0
    2.2348    1.8803    2.1704 O   0  0  0  0  0  0  0  0  0  0  0  0
    4.3829    1.9921    3.4615 O   0  0  0  0  0  0  0  0  0  0  0  0
    4.2618    3.0102    1.1724 N   0  0  0  0  0  0  0  0  0  0  0  0
    3.6464    4.3574    1.2715 C   0  0  0  0  0  0  0  0  0  0  0  0
    4.2525    5.3296    0.2584 C   0  0  0  0  0  0  0  0  0  0  0  0
    3.5761    6.5319   -0.0011 C   0  0  0  0  0  0  0  0  0  0  0  0
    4.0417    7.4011   -0.9859 C   0  0  0  0  0  0  0  0  0  0  0  0
    5.1761    7.0664   -1.7225 C   0  0  0  0  0  0  0  0  0  0  0  0
    5.7102    8.1161   -2.9787 Cl  0  0  0  0  0  0  0  0  0  0  0  0
    5.8797    5.8872   -1.4617 C   0  0  0  0  0  0  0  0  0  0  0  0
    5.4625    5.0323   -0.4337 C   0  0  0  0  0  0  0  0  0  0  0  0
    6.1445    3.7030   -0.1751 C   0  0  0  0  0  0  0  0  0  0  0  0
    7.6379    3.4740   -0.2279 C   0  0  0  0  0  0  0  0  0  0  0  0
    8.1497    2.7676   -1.0986 O   0  0  0  0  0  0  0  0  0  0  0  0
    8.4095    3.8814    0.8594 N   0  0  0  0  0  0  0  0  0  0  0  0
    8.6662    5.2811    0.8454 C   0  0  0  0  0  0  0  0  0  0  0  0
    7.8268    6.1369    1.5492 C   0  0  0  0  0  0  0  0  0  0  0  0
    7.6528    7.4280    1.2165 N   0  0  0  0  0  0  0  0  0  0  0  0
    8.2981    7.8481    0.1005 C   0  0  0  0  0  0  0  0  0  0  0  0
    9.2085    7.0792   -0.6396 C   0  0  0  0  0  0  0  0  0  0  0  0
    9.7849    7.5090   -1.8476 C   0  0  0  0  0  0  0  0  0  0  0  0
   10.6937    6.7006   -2.5374 C   0  0  0  0  0  0  0  0  0  0  0  0
   11.0762    5.4741   -2.0123 C   0  0  0  0  0  0  0  0  0  0  0  0
   10.4777    5.0184   -0.8454 C   0  0  0  0  0  0  0  0  0  0  0  0
    9.4893    5.7858   -0.1815 C   0  0  0  0  0  0  0  0  0  0  0  0
    5.7260    3.1290    1.1673 C   0  0  0  0  0  0  0  0  0  0  0  0
    4.3146   -1.4056   -0.3366 C   0  0  0  0  0  0  0  0  0  0  0  0
    4.0324   -1.8352   -1.7700 C   0  0  0  0  0  0  0  0  0  0  0  0
    4.6308   -0.9136   -2.6720 O   0  0  0  0  0  0  0  0  0  0  0  0
    4.0794    0.3926   -2.5471 C   0  0  0  0  0  0  0  0  0  0  0  0
    4.3656    0.9576   -1.1546 C   0  0  0  0  0  0  0  0  0  0  0  0
    3.8949   -0.4605    2.0775 H   0  0  0  0  0  0  0  0  0  0  0  0
    5.3638    0.3067    1.5260 H   0  0  0  0  0  0  0  0  0  0  0  0
    2.5735    4.2707    1.0632 H   0  0  0  0  0  0  0  0  0  0  0  0
    3.7885    4.7652    2.2791 H   0  0  0  0  0  0  0  0  0  0  0  0
    2.6686    6.7852    0.5451 H   0  0  0  0  0  0  0  0  0  0  0  0
    3.5020    8.3231   -1.1882 H   0  0  0  0  0  0  0  0  0  0  0  0
    6.7437    5.6359   -2.0724 H   0  0  0  0  0  0  0  0  0  0  0  0
    5.7549    3.0830   -0.9858 H   0  0  0  0  0  0  0  0  0  0  0  0
    9.2812    3.3748    0.7238 H   0  0  0  0  0  0  0  0  0  0  0  0
    7.1934    5.7791    2.3559 H   0  0  0  0  0  0  0  0  0  0  0  0
    8.0281    8.8521   -0.2159 H   0  0  0  0  0  0  0  0  0  0  0  0
    9.4953    8.4632   -2.2808 H   0  0  0  0  0  0  0  0  0  0  0  0
   11.1059    7.0286   -3.4874 H   0  0  0  0  0  0  0  0  0  0  0  0
   11.8071    4.8517   -2.5224 H   0  0  0  0  0  0  0  0  0  0  0  0
   10.7789    4.0403   -0.4757 H   0  0  0  0  0  0  0  0  0  0  0  0
    6.0404    3.7542    2.0117 H   0  0  0  0  0  0  0  0  0  0  0  0
    6.2067    2.1573    1.3046 H   0  0  0  0  0  0  0  0  0  0  0  0
    5.3992   -1.4662   -0.1710 H   0  0  0  0  0  0  0  0  0  0  0  0
    3.8424   -2.1191    0.3510 H   0  0  0  0  0  0  0  0  0  0  0  0
    2.9588   -1.9168   -1.9741 H   0  0  0  0  0  0  0  0  0  0  0  0
    4.4744   -2.8200   -1.9535 H   0  0  0  0  0  0  0  0  0  0  0  0
    3.0062    0.3643   -2.7687 H   0  0  0  0  0  0  0  0  0  0  0  0
    4.5512    1.0257   -3.3053 H   0  0  0  0  0  0  0  0  0  0  0  0
    3.9125    1.9508   -1.1046 H   0  0  0  0  0  0  0  0  0  0  0  0
    5.4528    1.0336   -1.0491 H   0  0  0  0  0  0  0  0  0  0  0  0
  1  2  3  0  0  0  0
  2  3  1  0  0  0  0
  3  4  1  0  0  0  0
  3 32  1  0  0  0  0
  3 36  1  0  0  0  0
  4  5  1  0  0  0  0
  4 37  1  0  0  0  0
  4 38  1  0  0  0  0
  5  6  2  0  0  0  0
  5  7  2  0  0  0  0
  5  8  1  0  0  0  0
  8  9  1  0  0  0  0
  8 31  1  0  0  0  0
  9 10  1  0  0  0  0
  9 39  1  0  0  0  0
  9 40  1  0  0  0  0
 10 11  1  0  0  0  0
 10 16  2  0  0  0  0
 11 12  2  0  0  0  0
 11 41  1  0  0  0  0
 12 13  1  0  0  0  0
 12 42  1  0  0  0  0
 13 14  1  0  0  0  0
 13 15  2  0  0  0  0
 15 16  1  0  0  0  0
 15 43  1  0  0  0  0
 16 17  1  0  0  0  0
 17 18  1  0  0  0  0
 17 31  1  0  0  0  0
 17 44  1  0  0  0  0
 18 19  2  0  0  0  0
 18 20  1  0  0  0  0
 20 21  1  0  0  0  0
 20 45  1  0  0  0  0
 21 22  1  0  0  0  0
 21 30  2  0  0  0  0
 22 23  2  0  0  0  0
 22 46  1  0  0  0  0
 23 24  1  0  0  0  0
 24 25  2  0  0  0  0
 24 47  1  0  0  0  0
 25 26  1  0  0  0  0
 25 30  1  0  0  0  0
 26 27  2  0  0  0  0
 26 48  1  0  0  0  0
 27 28  1  0  0  0  0
 27 49  1  0  0  0  0
 28 29  2  0  0  0  0
 28 50  1  0  0  0  0
 29 30  1  0  0  0  0
 29 51  1  0  0  0  0
 31 52  1  0  0  0  0
 31 53  1  0  0  0  0
 32 33  1  0  0  0  0
 32 54  1  0  0  0  0
 32 55  1  0  0  0  0
 33 34  1  0  0  0  0
 33 56  1  0  0  0  0
 33 57  1  0  0  0  0
 34 35  1  0  0  0  0
 35 36  1  0  0  0  0
 35 58  1  0  0  0  0
 35 59  1  0  0  0  0
 36 60  1  0  0  0  0
 36 61  1  0  0  0  0
M  END
$$$$
