CatS_176
 OpenBabel05281909343D

 96100  0  0  1  0  0  0  0  0999 V2000
    1.3871   17.6881   -4.5414 C   0  0  0  0  0  0  0  0  0  0  0  0
    0.2859   17.5008   -5.3040 C   0  0  0  0  0  0  0  0  0  0  0  0
   -0.1249   16.1700   -5.7827 C   0  0  1  0  0  0  0  0  0  0  0  0
   -1.1913   15.5857   -4.8379 C   0  0  0  0  0  0  0  0  0  0  0  0
   -1.6668   14.2213   -5.3740 C   0  0  0  0  0  0  0  0  0  0  0  0
   -2.2336   14.3439   -6.7310 N   0  3  1  0  0  0  0  0  0  0  0  0
   -1.2231   14.8909   -7.6591 C   0  0  0  0  0  0  0  0  0  0  0  0
   -0.7222   16.2748   -7.1989 C   0  0  0  0  0  0  0  0  0  0  0  0
   -2.7051   13.0260   -7.1971 C   0  0  0  0  0  0  0  0  0  0  0  0
   -3.4130   13.0568   -8.5708 C   0  0  1  0  0  0  0  0  0  0  0  0
   -3.3396   11.6550   -9.2001 C   0  0  0  0  0  0  0  0  0  0  0  0
   -4.3392   10.6961   -8.7087 N   0  0  0  0  0  0  0  0  0  0  0  0
   -5.5310   10.3251   -9.2410 C   0  0  0  0  0  0  0  0  0  0  0  0
   -6.2052    9.4821   -8.4579 C   0  0  0  0  0  0  0  0  0  0  0  0
   -5.3400    9.2805   -7.3580 C   0  0  0  0  0  0  0  0  0  0  0  0
   -4.2646   10.0227   -7.5357 N   0  0  0  0  0  0  0  0  0  0  0  0
   -5.5281    8.4128   -6.2062 C   0  0  0  0  0  0  0  0  0  0  0  0
   -4.4677    7.7389   -5.6282 C   0  0  0  0  0  0  0  0  0  0  0  0
   -4.6602    6.9418   -4.5283 C   0  0  0  0  0  0  0  0  0  0  0  0
   -5.9103    6.7700   -3.9697 C   0  0  0  0  0  0  0  0  0  0  0  0
   -6.9758    7.4401   -4.5580 C   0  0  0  0  0  0  0  0  0  0  0  0
   -6.7839    8.2537   -5.6506 C   0  0  0  0  0  0  0  0  0  0  0  0
   -8.6624    7.2888   -3.9528 S   0  0  0  0  0  0  0  0  0  0  0  0
   -9.2127    8.9474   -3.4728 C   0  0  0  0  0  0  0  0  0  0  0  0
   -8.0195    9.8150   -3.0206 C   0  0  0  0  0  0  0  0  0  0  0  0
   -8.4072   10.8678   -2.0650 N   0  3  0  0  0  0  0  0  0  0  0  0
   -9.7689   11.3444   -2.3739 C   0  0  0  0  0  0  0  0  0  0  0  0
  -10.2313   12.4114   -1.3619 C   0  0  0  0  0  0  0  0  0  0  0  0
   -9.2441   13.5921   -1.3597 C   0  0  0  0  0  0  0  0  0  0  0  0
   -7.8200   13.0741   -1.0856 C   0  0  0  0  0  0  0  0  0  0  0  0
   -7.4531   11.9951   -2.1228 C   0  0  0  0  0  0  0  0  0  0  0  0
   -5.9448    5.8567   -2.7423 C   0  0  0  0  0  0  0  0  0  0  0  0
   -4.9473    4.8881   -2.7813 F   0  0  0  0  0  0  0  0  0  0  0  0
   -7.1419    5.1655   -2.5932 F   0  0  0  0  0  0  0  0  0  0  0  0
   -5.7380    6.5909   -1.5778 F   0  0  0  0  0  0  0  0  0  0  0  0
   -7.5839    8.9487   -8.8239 C   0  0  0  0  0  0  0  0  0  0  0  0
   -8.2562    9.7458   -9.8749 N   0  0  0  0  0  0  0  0  0  0  0  0
   -7.3183    9.9449  -11.0008 C   0  0  0  0  0  0  0  0  0  0  0  0
   -6.0941   10.7929  -10.5730 C   0  0  0  0  0  0  0  0  0  0  0  0
   -9.7909    9.3103  -10.1697 S   0  0  0  0  0  0  0  0  0  0  0  0
   -9.8658    7.9422   -9.7662 O   0  0  0  0  0  0  0  0  0  0  0  0
  -10.0690    9.5800  -11.5450 O   0  0  0  0  0  0  0  0  0  0  0  0
  -10.9189   10.2892   -9.1311 C   0  0  0  0  0  0  0  0  0  0  0  0
   -9.5605   14.3841   -0.5171 F   0  0  0  0  0  0  0  0  0  0  0  0
   -0.6190   18.0802   -4.7689 O   0  0  0  0  0  0  0  0  0  0  0  0
   -9.2639   14.1291   -2.4332 F   0  0  0  0  0  0  0  0  0  0  0  0
    0.4901   18.1901   -6.2667 C   0  0  0  0  0  0  0  0  0  0  0  0
   -4.5659   13.3631   -8.4240 O   0  0  0  0  0  0  0  0  0  0  0  0
   -2.8849   13.8321   -9.3199 H   0  0  0  0  0  0  0  0  0  0  0  0
    0.8138   15.4249   -5.8330 H   0  0  0  0  0  0  0  0  0  0  0  0
   -0.7251   15.4541   -3.7392 H   0  0  0  0  0  0  0  0  0  0  0  0
   -2.1308   16.3300   -4.7860 H   0  0  0  0  0  0  0  0  0  0  0  0
   -2.5057   13.8240   -4.6130 H   0  0  0  0  0  0  0  0  0  0  0  0
   -0.7427   13.4539   -5.3882 H   0  0  0  0  0  0  0  0  0  0  0  0
   -1.7002   15.0319   -8.7498 H   0  0  0  0  0  0  0  0  0  0  0  0
   -0.2801   14.1496   -7.7231 H   0  0  0  0  0  0  0  0  0  0  0  0
    0.1171   16.6710   -7.9592 H   0  0  0  0  0  0  0  0  0  0  0  0
   -1.6449   17.0421   -7.1909 H   0  0  0  0  0  0  0  0  0  0  0  0
   -3.5302   12.6209   -6.4257 H   0  0  0  0  0  0  0  0  0  0  0  0
   -1.8131   12.2239   -7.2247 H   0  0  0  0  0  0  0  0  0  0  0  0
   -3.4749   11.7687  -10.3870 H   0  0  0  0  0  0  0  0  0  0  0  0
   -2.2549   11.1928   -8.9840 H   0  0  0  0  0  0  0  0  0  0  0  0
   -3.5487    7.8381   -6.0090 H   0  0  0  0  0  0  0  0  0  0  0  0
   -3.8721    6.4759   -4.1253 H   0  0  0  0  0  0  0  0  0  0  0  0
   -7.5648    8.7322   -6.0516 H   0  0  0  0  0  0  0  0  0  0  0  0
   -9.7313    9.4498   -4.4320 H   0  0  0  0  0  0  0  0  0  0  0  0
  -10.0244    8.8691   -2.5915 H   0  0  0  0  0  0  0  0  0  0  0  0
   -7.5947   10.3442   -4.0120 H   0  0  0  0  0  0  0  0  0  0  0  0
   -7.1415    9.1330   -2.5672 H   0  0  0  0  0  0  0  0  0  0  0  0
  -10.5488   10.4349   -2.3162 H   0  0  0  0  0  0  0  0  0  0  0  0
   -9.7885   11.8010   -3.4838 H   0  0  0  0  0  0  0  0  0  0  0  0
  -10.2650   11.9167   -0.2701 H   0  0  0  0  0  0  0  0  0  0  0  0
  -11.3257   12.8011   -1.6600 H   0  0  0  0  0  0  0  0  0  0  0  0
   -7.0420   13.9839   -1.1571 H   0  0  0  0  0  0  0  0  0  0  0  0
   -7.7745   12.5991    0.0151 H   0  0  0  0  0  0  0  0  0  0  0  0
   -7.4589   12.4815   -3.2209 H   0  0  0  0  0  0  0  0  0  0  0  0
   -6.3403   11.6216   -1.8748 H   0  0  0  0  0  0  0  0  0  0  0  0
   -7.4860    7.8080   -9.1821 H   0  0  0  0  0  0  0  0  0  0  0  0
   -8.2802    8.9949   -7.8457 H   0  0  0  0  0  0  0  0  0  0  0  0
   -6.9429    8.8782  -11.4009 H   0  0  0  0  0  0  0  0  0  0  0  0
   -7.8698   10.5231  -11.8949 H   0  0  0  0  0  0  0  0  0  0  0  0
   -6.4275   11.9410  -10.4691 H   0  0  0  0  0  0  0  0  0  0  0  0
   -5.2559   10.6982  -11.4261 H   0  0  0  0  0  0  0  0  0  0  0  0
  -11.0143   11.4131   -9.5422 H   0  0  0  0  0  0  0  0  0  0  0  0
  -12.0136    9.7991   -9.1411 H   0  0  0  0  0  0  0  0  0  0  0  0
  -10.5204   10.3164   -7.9994 H   0  0  0  0  0  0  0  0  0  0  0  0
   -2.9460   14.9137   -6.7056 H   0  0  0  0  0  0  0  0  0  0  0  0
   -8.4052   10.5167   -1.2234 H   0  0  0  0  0  0  0  0  0  0  0  0
    2.3901   17.3078   -5.0851 H   0  0  0  0  0  0  0  0  0  0  0  0
    1.2990   16.9586   -3.5907 H   0  0  0  0  0  0  0  0  0  0  0  0
    1.6174   18.7805   -4.0893 H   0  0  0  0  0  0  0  0  0  0  0  0
    1.3911   17.7595   -6.9400 H   0  0  0  0  0  0  0  0  0  0  0  0
   -0.3905   18.5739   -6.9904 H   0  0  0  0  0  0  0  0  0  0  0  0
    0.9697   19.2749   -6.0429 H   0  0  0  0  0  0  0  0  0  0  0  0
   -1.4505   18.0963   -5.3363 H   0  0  0  0  0  0  0  0  0  0  0  0
   -5.0642   13.3432   -9.2977 H   0  0  0  0  0  0  0  0  0  0  0  0
  1  2  1  0  0  0  0
  2  3  1  0  0  0  0
  3  4  1  0  0  0  0
  3  8  1  0  0  0  0
  3 50  1  6  0  0  0
  4  5  1  0  0  0  0
  4 51  1  0  0  0  0
  4 52  1  0  0  0  0
  5  6  1  0  0  0  0
  5 53  1  0  0  0  0
  5 54  1  0  0  0  0
  6  7  1  0  0  0  0
  6  9  1  0  0  0  0
  6 87  1  1  0  0  0
  7  8  1  0  0  0  0
  7 55  1  0  0  0  0
  7 56  1  0  0  0  0
  8 57  1  0  0  0  0
  8 58  1  0  0  0  0
  9 10  1  0  0  0  0
  9 59  1  0  0  0  0
  9 60  1  0  0  0  0
 10 11  1  0  0  0  0
 10 48  1  0  0  0  0
 10 49  1  6  0  0  0
 11 12  1  0  0  0  0
 11 61  1  0  0  0  0
 11 62  1  0  0  0  0
 12 13  1  0  0  0  0
 12 16  1  0  0  0  0
 13 14  2  0  0  0  0
 13 39  1  0  0  0  0
 14 15  1  0  0  0  0
 14 36  1  0  0  0  0
 15 16  2  0  0  0  0
 15 17  1  0  0  0  0
 17 18  2  0  0  0  0
 17 22  1  0  0  0  0
 18 19  1  0  0  0  0
 18 63  1  0  0  0  0
 19 20  2  0  0  0  0
 19 64  1  0  0  0  0
 20 21  1  0  0  0  0
 20 32  1  0  0  0  0
 21 22  2  0  0  0  0
 21 23  1  0  0  0  0
 22 65  1  0  0  0  0
 23 24  1  0  0  0  0
 24 25  1  0  0  0  0
 24 66  1  0  0  0  0
 24 67  1  0  0  0  0
 25 26  1  0  0  0  0
 25 68  1  0  0  0  0
 25 69  1  0  0  0  0
 26 27  1  0  0  0  0
 26 31  1  0  0  0  0
 27 28  1  0  0  0  0
 27 70  1  0  0  0  0
 27 71  1  0  0  0  0
 28 29  1  0  0  0  0
 28 72  1  0  0  0  0
 28 73  1  0  0  0  0
 29 30  1  0  0  0  0
 29 44  1  0  0  0  0
 29 46  1  0  0  0  0
 30 31  1  0  0  0  0
 30 74  1  0  0  0  0
 30 75  1  0  0  0  0
 31 76  1  0  0  0  0
 31 77  1  0  0  0  0
 32 33  1  0  0  0  0
 32 34  1  0  0  0  0
 32 35  1  0  0  0  0
 36 37  1  0  0  0  0
 36 78  1  0  0  0  0
 36 79  1  0  0  0  0
 37 38  1  0  0  0  0
 37 40  1  0  0  0  0
 38 39  1  0  0  0  0
 38 80  1  0  0  0  0
 38 81  1  0  0  0  0
 39 82  1  0  0  0  0
 39 83  1  0  0  0  0
 40 41  2  0  0  0  0
 40 42  2  0  0  0  0
 40 43  1  0  0  0  0
 43 84  1  0  0  0  0
 43 85  1  0  0  0  0
 43 86  1  0  0  0  0
 45  2  1  0  0  0  0
 47  2  1  0  0  0  0
 48 96  1  0  0  0  0
 88 26  1  0  0  0  0
 89  1  1  0  0  0  0
 90  1  1  0  0  0  0
 91  1  1  0  0  0  0
 92 47  1  0  0  0  0
 93 47  1  0  0  0  0
 94 47  1  0  0  0  0
 95 45  1  0  0  0  0
M  CHG  2   6   1  26   1
M  END
$$$$
