
     RDKit          3D

 37 40  0  0  0  0  0  0  0  0999 V2000
   -5.6889    3.0875   -0.7081 C   0  0  0  0  0  0  0  0  0  0  0  0
   -4.2658    3.3765   -0.1834 C   0  0  0  0  0  0  0  0  0  0  0  0
   -3.5582    4.3638   -1.1370 C   0  0  0  0  0  0  0  0  0  0  0  0
   -4.4040    4.0710    1.1929 C   0  0  0  0  0  0  0  0  0  0  0  0
   -3.4643    2.0599   -0.1189 C   0  0  0  0  0  0  0  0  0  0  0  0
   -3.2488    1.3157   -1.3005 C   0  0  0  0  0  0  0  0  0  0  0  0
   -2.5254    0.1212   -1.2814 C   0  0  0  0  0  0  0  0  0  0  0  0
   -1.9912   -0.3647   -0.0820 C   0  0  0  0  0  0  0  0  0  0  0  0
   -1.2421   -1.5940   -0.0529 N   0  0  0  0  0  0  0  0  0  0  0  0
   -1.7163   -2.6477    0.8129 C   0  0  0  0  0  0  0  0  0  0  0  0
   -2.9488   -2.9131    0.8379 O   0  0  0  0  0  0  0  0  0  0  0  0
   -0.8088   -3.4046    1.6925 C   0  0  0  0  0  0  0  0  0  0  0  0
   -1.1219   -4.5767    2.3534 C   0  0  0  0  0  0  0  0  0  0  0  0
    0.0105   -4.9207    3.0592 C   0  0  0  0  0  0  0  0  0  0  0  0
    0.9407   -3.9377    2.7918 C   0  0  0  0  0  0  0  0  0  0  0  0
    0.4216   -3.0488    1.9771 O   0  0  0  0  0  0  0  0  0  0  0  0
   -0.0408   -1.7270   -0.9106 C   0  0  0  0  0  0  0  0  0  0  0  0
    1.1475   -1.0137   -0.3068 C   0  0  0  0  0  0  0  0  0  0  0  0
    1.1028   -0.5957    0.8827 O   0  0  0  0  0  0  0  0  0  0  0  0
    2.3232   -0.7951   -1.1001 N   0  0  0  0  0  0  0  0  0  0  0  0
    3.4959   -0.0904   -0.5879 C   0  0  0  0  0  0  0  0  0  0  0  0
    3.2325    1.4169   -0.5344 C   0  0  0  0  0  0  0  0  0  0  0  0
    4.4413    2.1471   -0.0148 C   0  0  0  0  0  0  0  0  0  0  0  0
    4.6118    2.3406    1.3662 C   0  0  0  0  0  0  0  0  0  0  0  0
    5.7511    2.9908    1.8506 C   0  0  0  0  0  0  0  0  0  0  0  0
    6.7309    3.4428    0.9623 C   0  0  0  0  0  0  0  0  0  0  0  0
    6.5751    3.2418   -0.4125 C   0  0  0  0  0  0  0  0  0  0  0  0
    7.5303    3.6735   -1.2725 F   0  0  0  0  0  0  0  0  0  0  0  0
    5.4369    2.5918   -0.9009 C   0  0  0  0  0  0  0  0  0  0  0  0
    0.2279   -3.1746   -1.3027 C   0  0  0  0  0  0  0  0  0  0  0  0
   -0.6815   -3.8243   -2.1530 C   0  0  0  0  0  0  0  0  0  0  0  0
   -0.4838   -5.1579   -2.5116 C   0  0  0  0  0  0  0  0  0  0  0  0
    0.6262   -5.8412   -2.0163 C   0  0  0  0  0  0  0  0  0  0  0  0
    1.5020   -5.2088   -1.1930 N   0  0  0  0  0  0  0  0  0  0  0  0
    1.3336   -3.9098   -0.8283 C   0  0  0  0  0  0  0  0  0  0  0  0
   -2.2067    0.3516    1.1009 C   0  0  0  0  0  0  0  0  0  0  0  0
   -2.9286    1.5478    1.0867 C   0  0  0  0  0  0  0  0  0  0  0  0
  1  2  1  0
  2  3  1  0
  2  4  1  0
  2  5  1  0
  5  6  2  0
  6  7  1  0
  7  8  2  0
  8  9  1  0
  9 10  1  0
 10 11  2  0
 10 12  1  0
 12 13  2  0
 13 14  1  0
 14 15  2  0
 15 16  1  0
  9 17  1  0
 17 18  1  0
 18 19  2  0
 18 20  1  0
 20 21  1  0
 21 22  1  0
 22 23  1  0
 23 24  2  0
 24 25  1  0
 25 26  2  0
 26 27  1  0
 27 28  1  0
 27 29  2  0
 17 30  1  0
 30 31  2  0
 31 32  1  0
 32 33  2  0
 33 34  1  0
 34 35  2  0
  8 36  1  0
 36 37  2  0
 37  5  1  0
 16 12  1  0
 29 23  1  0
 35 30  1  0
M  END
$$$$
