*****
     RDKit          3D

 33 36  0  0  1  0  0  0  0  0999 V2000
    3.3669    3.0445   -0.8558 O   0  0  0  0  0  0  0  0  0  0  0  0
    2.5736    2.1400   -0.6985 C   0  0  0  0  0  0  0  0  0  0  0  0
    1.3296    2.3363   -1.2033 N   0  0  0  0  0  0  0  0  0  0  0  0
    0.3350    1.3229   -1.5847 C   0  0  0  0  0  0  0  0  0  0  0  0
   -1.0995    1.8653   -1.6599 C   0  0  0  0  0  0  0  0  0  0  0  0
   -1.4686    2.6928   -2.8853 C   0  0  0  0  0  0  0  0  0  0  0  0
   -0.5290    3.3674   -3.6754 C   0  0  0  0  0  0  0  0  0  0  0  0
   -0.9471    4.1450   -4.7541 C   0  0  0  0  0  0  0  0  0  0  0  0
   -2.3023    4.2525   -5.0574 C   0  0  0  0  0  0  0  0  0  0  0  0
   -3.2392    3.5735   -4.2834 C   0  0  0  0  0  0  0  0  0  0  0  0
   -4.9245    3.6972   -4.6514 Cl  0  0  0  0  0  0  0  0  0  0  0  0
   -2.8237    2.7992   -3.2040 C   0  0  0  0  0  0  0  0  0  0  0  0
    2.8848    1.0659    0.3568 C   0  0  2  0  0  0  0  0  0  0  0  0
    2.3828   -0.3569    0.0707 C   0  0  0  0  0  0  0  0  0  0  0  0
    2.3831   -0.8562   -1.2352 C   0  0  0  0  0  0  0  0  0  0  0  0
    1.6826   -2.0274   -1.5110 C   0  0  0  0  0  0  0  0  0  0  0  0
    1.0674   -2.7082   -0.4628 C   0  0  0  0  0  0  0  0  0  0  0  0
    1.1892   -2.3230    0.8255 N   0  0  0  0  0  0  0  0  0  0  0  0
    1.8731   -1.1854    1.0805 C   0  0  0  0  0  0  0  0  0  0  0  0
    2.6177    1.5838    1.7392 N   0  0  0  0  0  0  0  0  0  0  0  0
    3.5051    1.3693    2.7661 C   0  0  0  0  0  0  0  0  0  0  0  0
    3.0785    1.1660    3.8848 O   0  0  0  0  0  0  0  0  0  0  0  0
    4.9657    1.3087    2.4814 C   0  0  0  0  0  0  0  0  0  0  0  0
    5.6589    1.9389    1.4732 C   0  0  0  0  0  0  0  0  0  0  0  0
    7.0058    1.5090    1.5972 C   0  0  0  0  0  0  0  0  0  0  0  0
    7.0203    0.7064    2.7024 C   0  0  0  0  0  0  0  0  0  0  0  0
    5.8012    0.6106    3.3337 O   0  0  0  0  0  0  0  0  0  0  0  0
    1.2860    2.0751    2.0647 C   0  0  0  0  0  0  0  0  0  0  0  0
    0.1059    1.3852    1.7516 C   0  0  0  0  0  0  0  0  0  0  0  0
   -1.1239    1.8800    2.1688 C   0  0  0  0  0  0  0  0  0  0  0  0
   -1.1606    3.0568    2.9068 C   0  0  0  0  0  0  0  0  0  0  0  0
   -0.0433    3.7451    3.2277 N   0  0  0  0  0  0  0  0  0  0  0  0
    1.1479    3.2543    2.8089 C   0  0  0  0  0  0  0  0  0  0  0  0
  1  2  2  0
  2  3  1  0
  3  4  1  0
  4  5  1  0
  5  6  1  0
  6  7  2  0
  7  8  1  0
  8  9  2  0
  9 10  1  0
 10 11  1  0
 10 12  2  0
 12  6  1  0
 13 20  1  0
 13 14  1  0
 13  2  1  6
 14 15  2  0
 15 16  1  0
 16 17  2  0
 17 18  1  0
 18 19  2  0
 19 14  1  0
 20 21  1  0
 20 28  1  0
 21 22  2  0
 21 23  1  0
 23 24  2  0
 24 25  1  0
 25 26  2  0
 26 27  1  0
 27 23  1  0
 28 29  2  0
 29 30  1  0
 30 31  2  0
 31 32  1  0
 32 33  2  0
 33 28  1  0
M  END
$$$$
