*****
     RDKit          3D

 36 39  0  0  1  0  0  0  0  0999 V2000
   -7.7976   -7.4530    0.5839 C   0  0  0  0  0  0  0  0  0  0  0  0
   -6.7060   -6.8570   -0.3338 C   0  0  0  0  0  0  0  0  0  0  0  0
   -6.8959   -7.4074   -1.7661 C   0  0  0  0  0  0  0  0  0  0  0  0
   -6.6390   -5.3237   -0.3315 C   0  0  0  0  0  0  0  0  0  0  0  0
   -7.5275   -4.5210    0.3977 C   0  0  0  0  0  0  0  0  0  0  0  0
   -7.4508   -3.1301    0.3336 C   0  0  0  0  0  0  0  0  0  0  0  0
   -6.4516   -2.5097   -0.4181 C   0  0  0  0  0  0  0  0  0  0  0  0
   -6.3168   -1.0736   -0.3946 N   0  0  0  0  0  0  0  0  0  0  0  0
   -6.3851   -0.2756   -1.5231 C   0  0  0  0  0  0  0  0  0  0  0  0
   -6.3093    0.9359   -1.4379 O   0  0  0  0  0  0  0  0  0  0  0  0
   -6.2031   -0.9067   -2.8540 C   0  0  0  0  0  0  0  0  0  0  0  0
   -6.8041   -2.0400   -3.3500 C   0  0  0  0  0  0  0  0  0  0  0  0
   -6.1010   -2.3481   -4.5467 C   0  0  0  0  0  0  0  0  0  0  0  0
   -5.1775   -1.3506   -4.6876 C   0  0  0  0  0  0  0  0  0  0  0  0
   -5.2885   -0.3644   -3.7381 O   0  0  0  0  0  0  0  0  0  0  0  0
   -6.0612   -0.4178    0.9487 C   0  0  2  0  0  0  0  0  0  0  0  0
   -5.0007    0.6892    0.9437 C   0  0  0  0  0  0  0  0  0  0  0  0
   -5.2732    1.8116    1.3181 O   0  0  0  0  0  0  0  0  0  0  0  0
   -3.7045    0.3884    0.6941 N   0  0  0  0  0  0  0  0  0  0  0  0
   -3.1681   -0.8559    0.1285 C   0  0  0  0  0  0  0  0  0  0  0  0
   -2.8177   -0.6926   -1.3600 C   0  0  0  0  0  0  0  0  0  0  0  0
   -1.4735   -0.0461   -1.6544 C   0  0  0  0  0  0  0  0  0  0  0  0
   -0.9803   -0.1301   -2.9577 C   0  0  0  0  0  0  0  0  0  0  0  0
    0.2501    0.4340   -3.2855 C   0  0  0  0  0  0  0  0  0  0  0  0
    0.9972    1.0904   -2.3102 C   0  0  0  0  0  0  0  0  0  0  0  0
    0.5068    1.1835   -1.0109 C   0  0  0  0  0  0  0  0  0  0  0  0
    1.2246    1.8148   -0.0661 F   0  0  0  0  0  0  0  0  0  0  0  0
   -0.7226    0.6228   -0.6802 C   0  0  0  0  0  0  0  0  0  0  0  0
   -5.7713   -1.2269    2.2377 C   0  0  0  0  0  0  0  0  0  0  0  0
   -5.9641   -0.5675    3.4577 C   0  0  0  0  0  0  0  0  0  0  0  0
   -5.5902   -1.1803    4.6505 C   0  0  0  0  0  0  0  0  0  0  0  0
   -5.0482   -2.4608    4.6093 C   0  0  0  0  0  0  0  0  0  0  0  0
   -4.8377   -3.1199    3.4519 N   0  0  0  0  0  0  0  0  0  0  0  0
   -5.1768   -2.4995    2.3001 C   0  0  0  0  0  0  0  0  0  0  0  0
   -5.5297   -3.3119   -1.0980 C   0  0  0  0  0  0  0  0  0  0  0  0
   -5.6404   -4.6974   -1.0790 C   0  0  0  0  0  0  0  0  0  0  0  0
  1  2  1  0
  2  3  1  0
  2  4  1  0
  4  5  2  0
  5  6  1  0
  6  7  2  0
  7  8  1  0
  7 35  1  0
  8  9  1  0
  9 10  2  0
  9 11  1  0
 11 12  2  0
 12 13  1  0
 13 14  2  0
 14 15  1  0
 15 11  1  0
 16 29  1  0
 16 17  1  6
 16  8  1  0
 17 18  2  0
 17 19  1  0
 19 20  1  0
 20 21  1  0
 21 22  1  0
 22 23  2  0
 23 24  1  0
 24 25  2  0
 25 26  1  0
 26 27  1  0
 26 28  2  0
 28 22  1  0
 29 30  2  0
 30 31  1  0
 31 32  2  0
 32 33  1  0
 33 34  2  0
 34 29  1  0
 35 36  2  0
 36  4  1  0
M  END
$$$$
