
     RDKit          3D

 36 39  0  0  0  0  0  0  0  0999 V2000
   -6.4515   -2.8734   -0.4417 C   0  0  0  0  0  0  0  0  0  0  0  0
   -6.3348   -1.3498   -0.5681 C   0  0  0  0  0  0  0  0  0  0  0  0
   -7.4022   -0.6426    0.2753 C   0  0  0  0  0  0  0  0  0  0  0  0
   -4.9420   -0.8761   -0.1971 C   0  0  0  0  0  0  0  0  0  0  0  0
   -4.4281   -1.0734    1.0969 C   0  0  0  0  0  0  0  0  0  0  0  0
   -3.1423   -0.6368    1.4250 C   0  0  0  0  0  0  0  0  0  0  0  0
   -2.3370    0.0044    0.4655 C   0  0  0  0  0  0  0  0  0  0  0  0
   -0.9964    0.4465    0.7860 N   0  0  0  0  0  0  0  0  0  0  0  0
   -0.6688    1.8086    0.4653 C   0  0  0  0  0  0  0  0  0  0  0  0
   -1.0041    2.7318    1.2547 O   0  0  0  0  0  0  0  0  0  0  0  0
    0.0757    2.1226   -0.7620 C   0  0  0  0  0  0  0  0  0  0  0  0
    0.5511    3.3663   -1.1276 C   0  0  0  0  0  0  0  0  0  0  0  0
    1.1871    3.1790   -2.3359 C   0  0  0  0  0  0  0  0  0  0  0  0
    1.0575    1.8377   -2.6334 C   0  0  0  0  0  0  0  0  0  0  0  0
    0.3922    1.2344   -1.6757 O   0  0  0  0  0  0  0  0  0  0  0  0
   -0.1631   -0.2894    1.7685 C   0  0  0  0  0  0  0  0  0  0  0  0
    1.2645    0.2147    1.8055 C   0  0  0  0  0  0  0  0  0  0  0  0
    1.6778    0.8097    2.8382 O   0  0  0  0  0  0  0  0  0  0  0  0
    2.1348    0.0615    0.6752 N   0  0  0  0  0  0  0  0  0  0  0  0
    3.4024    0.7850    0.5927 C   0  0  0  0  0  0  0  0  0  0  0  0
    4.1233    0.4764   -0.7227 C   0  0  0  0  0  0  0  0  0  0  0  0
    5.3651    1.3152   -0.8554 C   0  0  0  0  0  0  0  0  0  0  0  0
    5.2978    2.5891   -1.4444 C   0  0  0  0  0  0  0  0  0  0  0  0
    6.4451    3.3827   -1.5377 C   0  0  0  0  0  0  0  0  0  0  0  0
    7.6630    2.9153   -1.0360 C   0  0  0  0  0  0  0  0  0  0  0  0
    7.7351    1.6546   -0.4360 C   0  0  0  0  0  0  0  0  0  0  0  0
    8.9154    1.2060    0.0577 F   0  0  0  0  0  0  0  0  0  0  0  0
    6.5894    0.8576   -0.3407 C   0  0  0  0  0  0  0  0  0  0  0  0
   -0.1661   -1.7881    1.5176 C   0  0  0  0  0  0  0  0  0  0  0  0
   -0.0999   -2.6773    2.6020 C   0  0  0  0  0  0  0  0  0  0  0  0
   -0.0818   -4.0551    2.3810 C   0  0  0  0  0  0  0  0  0  0  0  0
   -0.1192   -4.5386    1.0730 C   0  0  0  0  0  0  0  0  0  0  0  0
   -0.1681   -3.6713    0.0283 N   0  0  0  0  0  0  0  0  0  0  0  0
   -0.1872   -2.3249    0.2162 C   0  0  0  0  0  0  0  0  0  0  0  0
   -2.8560    0.2074   -0.8245 C   0  0  0  0  0  0  0  0  0  0  0  0
   -4.1420   -0.2290   -1.1526 C   0  0  0  0  0  0  0  0  0  0  0  0
  1  2  1  0
  2  3  1  0
  2  4  1  0
  4  5  2  0
  5  6  1  0
  6  7  2  0
  7  8  1  0
  8  9  1  0
  9 10  2  0
  9 11  1  0
 11 12  2  0
 12 13  1  0
 13 14  2  0
 14 15  1  0
  8 16  1  0
 16 17  1  0
 17 18  2  0
 17 19  1  0
 19 20  1  0
 20 21  1  0
 21 22  1  0
 22 23  2  0
 23 24  1  0
 24 25  2  0
 25 26  1  0
 26 27  1  0
 26 28  2  0
 16 29  1  0
 29 30  2  0
 30 31  1  0
 31 32  2  0
 32 33  1  0
 33 34  2  0
  7 35  1  0
 35 36  2  0
 36  4  1  0
 15 11  1  0
 28 22  1  0
 34 29  1  0
M  END
$$$$
