lig_57
  -OEChem-01312017313D

 47 50  0     0  0  0  0  0  0999 V2000
    3.8100  -50.0800    6.4300 O   0  5  0  0  0  0  0  0  0  0  0  0
    2.9400  -49.1700    6.5100 C   0  0  0  0  0  0  0  0  0  0  0  0
    3.2800  -47.9700    6.6700 O   0  0  0  0  0  0  0  0  0  0  0  0
    1.5200  -49.6100    6.4100 C   0  0  0  0  0  0  0  0  0  0  0  0
    1.0100  -51.1700    6.8300 N   0  0  0  0  0  0  0  0  0  0  0  0
    1.7900  -52.3500    7.3600 C   0  0  0  0  0  0  0  0  0  0  0  0
   -0.6500  -51.0200    6.4700 C   0  0  0  0  0  0  0  0  0  0  0  0
   -1.7400  -51.8800    6.5500 C   0  0  0  0  0  0  0  0  0  0  0  0
   -1.5900  -52.9000    6.8900 H   0  0  0  0  0  0  0  0  0  0  0  0
   -3.0100  -51.4600    6.1900 C   0  0  0  0  0  0  0  0  0  0  0  0
   -3.8500  -52.1300    6.2600 H   0  0  0  0  0  0  0  0  0  0  0  0
   -3.1800  -50.1500    5.7300 C   0  0  0  0  0  0  0  0  0  0  0  0
   -4.1700  -49.8000    5.4500 H   0  0  0  0  0  0  0  0  0  0  0  0
   -2.1000  -49.2800    5.6300 C   0  0  0  0  0  0  0  0  0  0  0  0
   -2.2500  -48.2700    5.2600 H   0  0  0  0  0  0  0  0  0  0  0  0
   -0.8300  -49.7000    6.0100 C   0  0  0  0  0  0  0  0  0  0  0  0
    0.3700  -48.9100    5.9700 C   0  0  0  0  0  0  0  0  0  0  0  0
    0.4000  -47.4900    5.5200 C   0  0  0  0  0  0  0  0  0  0  0  0
    1.1900  -47.3900    4.7800 H   0  0  0  0  0  0  0  0  0  0  0  0
   -0.5600  -47.2600    5.0600 H   0  0  0  0  0  0  0  0  0  0  0  0
    0.6500  -46.4800    6.6000 C   0  0  0  0  0  0  0  0  0  0  0  0
    0.5000  -45.4900    6.1500 H   0  0  0  0  0  0  0  0  0  0  0  0
    1.6900  -46.5900    6.9000 H   0  0  0  0  0  0  0  0  0  0  0  0
   -0.1800  -46.5400    7.8400 C   0  0  0  0  0  0  0  0  0  0  0  0
    0.0600  -45.6800    8.4700 H   0  0  0  0  0  0  0  0  0  0  0  0
    0.0400  -47.4600    8.3700 H   0  0  0  0  0  0  0  0  0  0  0  0
   -1.5300  -46.5100    7.5200 O   0  0  0  0  0  0  0  0  0  0  0  0
   -2.5200  -46.5300    8.4700 C   0  0  0  0  0  0  0  0  0  0  0  0
   -3.7300  -45.9200    8.2200 C   0  0  0  0  0  0  0  0  0  0  0  0
   -4.7100  -45.9600    9.2100 C   0  0  0  0  0  0  0  0  0  0  0  0
   -4.4900  -46.6000   10.4300 C   0  0  0  0  0  0  0  0  0  0  0  0
   -5.2500  -46.6300   11.1900 H   0  0  0  0  0  0  0  0  0  0  0  0
   -3.2600  -47.2100   10.6600 C   0  0  0  0  0  0  0  0  0  0  0  0
   -3.0700  -47.7100   11.6000 H   0  0  0  0  0  0  0  0  0  0  0  0
   -2.2800  -47.1700    9.6700 C   0  0  0  0  0  0  0  0  0  0  0  0
   -1.3200  -47.6500    9.8400 H   0  0  0  0  0  0  0  0  0  0  0  0
   -5.9600  -45.3400    8.9600 C   0  0  0  0  0  0  0  0  0  0  0  0
   -6.7300  -45.3700    9.7200 H   0  0  0  0  0  0  0  0  0  0  0  0
   -6.2200  -44.6900    7.7600 C   0  0  0  0  0  0  0  0  0  0  0  0
   -7.1800  -44.2300    7.5900 H   0  0  0  0  0  0  0  0  0  0  0  0
   -5.2400  -44.6500    6.7600 C   0  0  0  0  0  0  0  0  0  0  0  0
   -5.4400  -44.1500    5.8300 H   0  0  0  0  0  0  0  0  0  0  0  0
   -4.0000  -45.2500    6.9800 C   0  0  0  0  0  0  0  0  0  0  0  0
   -3.2400  -45.2200    6.2200 H   0  0  0  0  0  0  0  0  0  0  0  0
    1.1200  -53.2000    7.5100 H   0  0  0  0  0  0  0  0  0  0  0  0
    2.5700  -52.6300    6.6500 H   0  0  0  0  0  0  0  0  0  0  0  0
    2.2600  -52.0800    8.3100 H   0  0  0  0  0  0  0  0  0  0  0  0
 18 19  1  0  0  0  0
 18 20  1  0  0  0  0
 14 15  1  0  0  0  0
 12 13  1  0  0  0  0
 17 18  1  0  0  0  0
 18 21  1  0  0  0  0
 12 14  2  0  0  0  0
 14 16  1  0  0  0  0
 10 12  1  0  0  0  0
 41 42  1  0  0  0  0
 16 17  1  0  0  0  0
  4 17  2  0  0  0  0
  7 16  2  0  0  0  0
 21 22  1  0  0  0  0
 10 11  1  0  0  0  0
  8 10  2  0  0  0  0
 43 44  1  0  0  0  0
  2  4  1  0  0  0  0
  4  5  1  0  0  0  0
  1  2  1  0  0  0  0
  7  8  1  0  0  0  0
  5  7  1  0  0  0  0
  2  3  2  0  0  0  0
  8  9  1  0  0  0  0
 21 23  1  0  0  0  0
 21 24  1  0  0  0  0
  6 46  1  0  0  0  0
 41 43  2  0  0  0  0
 39 41  1  0  0  0  0
  5  6  1  0  0  0  0
 29 43  1  0  0  0  0
  6 45  1  0  0  0  0
  6 47  1  0  0  0  0
 24 27  1  0  0  0  0
 27 28  1  0  0  0  0
 39 40  1  0  0  0  0
 37 39  2  0  0  0  0
 24 26  1  0  0  0  0
 24 25  1  0  0  0  0
 28 29  2  0  0  0  0
 29 30  1  0  0  0  0
 28 35  1  0  0  0  0
 30 37  1  0  0  0  0
 37 38  1  0  0  0  0
 30 31  2  0  0  0  0
 35 36  1  0  0  0  0
 33 35  2  0  0  0  0
 31 33  1  0  0  0  0
 31 32  1  0  0  0  0
 33 34  1  0  0  0  0
M  CHG  1   1  -1
M  END
$$$$
