CatS_141
 OpenBabel05281909343D

 92 97  0  0  1  0  0  0  0  0999 V2000
   -4.4860    7.5390   -5.7130 C   0  0  0  0  0  0  0  0  0  0  0  0
   -4.3650   10.6260   -8.6810 N   0  0  0  0  0  0  0  0  0  0  0  0
   -4.2610   13.6690   -8.5960 O   0  0  0  0  0  0  0  0  0  0  0  0
   -8.5190    7.4480   -3.6400 S   0  0  0  0  0  0  0  0  0  0  0  0
   -4.6600    6.7110   -4.6310 C   0  0  0  0  0  0  0  0  0  0  0  0
   -4.2580    9.8690   -7.5650 N   0  0  0  0  0  0  0  0  0  0  0  0
   -9.1650    7.4180  -10.3570 O   0  0  0  0  0  0  0  0  0  0  0  0
   -5.8700    6.6380   -3.9730 C   0  0  0  0  0  0  0  0  0  0  0  0
   -2.1130   14.2740   -6.7860 N   0  3  0  0  0  0  0  0  0  0  0  0
   -6.9110    7.4270   -4.4420 C   0  0  0  0  0  0  0  0  0  0  0  0
   -8.2500    9.4450   -9.9050 N   0  0  0  0  0  0  0  0  0  0  0  0
   -6.7440    8.2480   -5.5340 C   0  0  0  0  0  0  0  0  0  0  0  0
   -8.4740   11.0240   -1.9850 N   0  3  2  0  0  0  0  0  0  0  0  0
   -5.5260    8.3210   -6.1830 C   0  0  0  0  0  0  0  0  0  0  0  0
   -5.3730    9.2150   -7.3200 C   0  0  0  0  0  0  0  0  0  0  0  0
   -6.3010    9.5350   -8.3340 C   0  0  0  0  0  0  0  0  0  0  0  0
   -5.6320   10.3810   -9.1230 C   0  0  0  0  0  0  0  0  0  0  0  0
   -3.2820   11.5020   -9.1680 C   0  0  0  0  0  0  0  0  0  0  0  0
   -3.0350   12.9250   -8.6220 C   0  0  2  0  0  0  0  0  0  0  0  0
   -2.4580   12.8950   -7.1940 C   0  0  0  0  0  0  0  0  0  0  0  0
   -1.2460   14.9390   -7.7820 C   0  0  0  0  0  0  0  0  0  0  0  0
   -0.9280   16.3790   -7.3870 C   0  0  0  0  0  0  0  0  0  0  0  0
   -0.3050   16.4250   -5.9980 C   0  0  0  0  0  0  0  0  0  0  0  0
   -1.2030   15.7170   -4.9990 C   0  0  0  0  0  0  0  0  0  0  0  0
   -1.4790   14.2950   -5.4640 C   0  0  0  0  0  0  0  0  0  0  0  0
   -6.2650   10.9470  -10.3860 C   0  0  0  0  0  0  0  0  0  0  0  0
   -7.7960   10.7440  -10.4580 C   0  0  0  0  0  0  0  0  0  0  0  0
   -7.7320    9.0720   -8.5740 C   0  0  0  0  0  0  0  0  0  0  0  0
   -9.1620    8.6350  -10.4910 C   0  0  0  0  0  0  0  0  0  0  0  0
  -10.2080    9.3280  -11.3500 C   0  0  0  0  0  0  0  0  0  0  0  0
  -11.6290    8.8050  -11.1180 C   0  0  0  0  0  0  0  0  0  0  0  0
  -12.1940   10.1850  -10.6770 C   0  0  0  0  0  0  0  0  0  0  0  0
  -10.7170   10.6570  -10.7910 C   0  0  0  0  0  0  0  0  0  0  0  0
   -9.0880    9.1670   -3.5890 C   0  0  0  0  0  0  0  0  0  0  0  0
   -7.9860   10.0770   -3.0060 C   0  0  0  0  0  0  0  0  0  0  0  0
   -9.7340   11.6310   -2.4140 C   0  0  0  0  0  0  0  0  0  0  0  0
  -10.2920   12.5450   -1.3270 C   0  0  0  0  0  0  0  0  0  0  0  0
   -9.3060   13.6380   -0.9380 C   0  0  2  0  0  0  0  0  0  0  0  0
   -7.9540   13.0170   -0.6360 C   0  0  0  0  0  0  0  0  0  0  0  0
   -7.4940   12.0830   -1.7470 C   0  0  0  0  0  0  0  0  0  0  0  0
   -5.9540    5.6900   -2.7790 C   0  0  0  0  0  0  0  0  0  0  0  0
   -5.8200    6.3780   -1.5790 F   0  0  0  0  0  0  0  0  0  0  0  0
   -7.1850    5.0440   -2.7510 F   0  0  0  0  0  0  0  0  0  0  0  0
   -4.9790    4.6960   -2.7840 F   0  0  0  0  0  0  0  0  0  0  0  0
   -9.7170   14.1890    0.0450 F   0  0  0  0  0  0  0  0  0  0  0  0
   -7.3600   12.6580   -2.6630 H   0  0  0  0  0  0  0  0  0  0  0  0
   -3.5160    7.5810   -6.2080 H   0  0  0  0  0  0  0  0  0  0  0  0
   -4.5330   13.8700   -9.4950 H   0  0  0  0  0  0  0  0  0  0  0  0
   -3.8260    6.1000   -4.2860 H   0  0  0  0  0  0  0  0  0  0  0  0
   -2.9790   14.7900   -6.7330 H   0  0  0  0  0  0  0  0  0  0  0  0
   -7.5820    8.8470   -5.8910 H   0  0  0  0  0  0  0  0  0  0  0  0
   -8.6190   10.5070   -1.1300 H   0  0  0  0  0  0  0  0  0  0  0  0
   -3.4480   11.6160  -10.2390 H   0  0  0  0  0  0  0  0  0  0  0  0
   -2.3140   13.4000   -9.2880 H   0  0  0  0  0  0  0  0  0  0  0  0
   -1.5640   12.2720   -7.1730 H   0  0  0  0  0  0  0  0  0  0  0  0
   -1.7540   14.9410   -8.7470 H   0  0  0  0  0  0  0  0  0  0  0  0
   -1.8480   16.9640   -7.3880 H   0  0  0  0  0  0  0  0  0  0  0  0
   -0.1760   17.4640   -5.6940 H   0  0  0  0  0  0  0  0  0  0  0  0
   -2.1450   16.2580   -4.9120 H   0  0  0  0  0  0  0  0  0  0  0  0
   -0.5370   13.7490   -5.5140 H   0  0  0  0  0  0  0  0  0  0  0  0
   -5.8110   10.4580  -11.2480 H   0  0  0  0  0  0  0  0  0  0  0  0
   -8.1030   10.8010  -11.5020 H   0  0  0  0  0  0  0  0  0  0  0  0
   -7.7660    7.9860   -8.4810 H   0  0  0  0  0  0  0  0  0  0  0  0
   -9.6990    9.2640  -12.3120 H   0  0  0  0  0  0  0  0  0  0  0  0
  -11.6850    8.0490  -10.3350 H   0  0  0  0  0  0  0  0  0  0  0  0
  -12.6180   10.2170   -9.6740 H   0  0  0  0  0  0  0  0  0  0  0  0
  -10.5860   11.4900  -11.4820 H   0  0  0  0  0  0  0  0  0  0  0  0
   -9.9790    9.2340   -2.9640 H   0  0  0  0  0  0  0  0  0  0  0  0
   -7.5440   10.6480   -3.8220 H   0  0  0  0  0  0  0  0  0  0  0  0
  -10.4570   10.8430   -2.6260 H   0  0  0  0  0  0  0  0  0  0  0  0
  -10.5200   11.9460   -0.4460 H   0  0  0  0  0  0  0  0  0  0  0  0
   -9.1990   14.3520   -1.7540 H   0  0  0  0  0  0  0  0  0  0  0  0
   -8.0250   12.4510    0.2930 H   0  0  0  0  0  0  0  0  0  0  0  0
   -6.5540   11.6220   -1.4440 H   0  0  0  0  0  0  0  0  0  0  0  0
   -2.4000   10.9760   -8.8040 H   0  0  0  0  0  0  0  0  0  0  0  0
   -3.1960   12.4820   -6.5070 H   0  0  0  0  0  0  0  0  0  0  0  0
   -0.3070   14.3880   -7.8350 H   0  0  0  0  0  0  0  0  0  0  0  0
   -0.2200   16.7930   -8.1050 H   0  0  0  0  0  0  0  0  0  0  0  0
    0.6630   15.9240   -6.0250 H   0  0  0  0  0  0  0  0  0  0  0  0
   -0.7050   15.6860   -4.0300 H   0  0  0  0  0  0  0  0  0  0  0  0
   -2.1600   13.8300   -4.7520 H   0  0  0  0  0  0  0  0  0  0  0  0
   -6.0860   12.0220  -10.3780 H   0  0  0  0  0  0  0  0  0  0  0  0
   -8.2500   11.5260   -9.8500 H   0  0  0  0  0  0  0  0  0  0  0  0
   -8.3600    9.5660   -7.8330 H   0  0  0  0  0  0  0  0  0  0  0  0
  -12.1250    8.2880  -11.9400 H   0  0  0  0  0  0  0  0  0  0  0  0
  -13.0220   10.6820  -11.1820 H   0  0  0  0  0  0  0  0  0  0  0  0
  -10.2370   11.0520   -9.8960 H   0  0  0  0  0  0  0  0  0  0  0  0
   -9.3200    9.4950   -4.6030 H   0  0  0  0  0  0  0  0  0  0  0  0
   -7.2630    9.4250   -2.5150 H   0  0  0  0  0  0  0  0  0  0  0  0
   -9.5490   12.2250   -3.3090 H   0  0  0  0  0  0  0  0  0  0  0  0
  -11.1880   13.0250   -1.7190 H   0  0  0  0  0  0  0  0  0  0  0  0
   -7.2250   13.8230   -0.5510 H   0  0  0  0  0  0  0  0  0  0  0  0
  1  5  2  0  0  0  0
  1 14  1  0  0  0  0
  1 47  1  0  0  0  0
  2  6  1  0  0  0  0
  2 18  1  0  0  0  0
  2 17  1  0  0  0  0
  3 48  1  0  0  0  0
  3 19  1  0  0  0  0
  4 34  1  0  0  0  0
  4 10  1  0  0  0  0
  5  8  1  0  0  0  0
  5 49  1  0  0  0  0
  6 15  2  0  0  0  0
  7 29  2  0  0  0  0
  8 10  2  0  0  0  0
  8 41  1  0  0  0  0
  9 21  1  0  0  0  0
  9 25  1  0  0  0  0
  9 50  1  0  0  0  0
  9 20  1  0  0  0  0
 10 12  1  0  0  0  0
 11 28  1  0  0  0  0
 11 29  1  0  0  0  0
 11 27  1  0  0  0  0
 12 14  2  0  0  0  0
 12 51  1  0  0  0  0
 13 36  1  0  0  0  0
 13 40  1  0  0  0  0
 13 52  1  1  0  0  0
 13 35  1  0  0  0  0
 14 15  1  0  0  0  0
 15 16  1  0  0  0  0
 16 17  2  0  0  0  0
 16 28  1  0  0  0  0
 17 26  1  0  0  0  0
 18 19  1  0  0  0  0
 18 53  1  0  0  0  0
 18 75  1  0  0  0  0
 19 20  1  0  0  0  0
 19 54  1  6  0  0  0
 20 55  1  0  0  0  0
 20 76  1  0  0  0  0
 21 22  1  0  0  0  0
 21 56  1  0  0  0  0
 21 77  1  0  0  0  0
 22 23  1  0  0  0  0
 22 57  1  0  0  0  0
 22 78  1  0  0  0  0
 23 24  1  0  0  0  0
 23 58  1  0  0  0  0
 23 79  1  0  0  0  0
 24 25  1  0  0  0  0
 24 59  1  0  0  0  0
 24 80  1  0  0  0  0
 25 60  1  0  0  0  0
 25 81  1  0  0  0  0
 26 27  1  0  0  0  0
 26 61  1  0  0  0  0
 26 82  1  0  0  0  0
 27 62  1  0  0  0  0
 27 83  1  0  0  0  0
 28 63  1  0  0  0  0
 28 84  1  0  0  0  0
 29 30  1  0  0  0  0
 30 31  1  0  0  0  0
 30 33  1  0  0  0  0
 30 64  1  0  0  0  0
 31 32  1  0  0  0  0
 31 65  1  0  0  0  0
 31 85  1  0  0  0  0
 32 33  1  0  0  0  0
 32 66  1  0  0  0  0
 32 86  1  0  0  0  0
 33 67  1  0  0  0  0
 33 87  1  0  0  0  0
 34 35  1  0  0  0  0
 34 68  1  0  0  0  0
 34 88  1  0  0  0  0
 35 69  1  0  0  0  0
 35 89  1  0  0  0  0
 36 37  1  0  0  0  0
 36 70  1  0  0  0  0
 36 90  1  0  0  0  0
 37 38  1  0  0  0  0
 37 71  1  0  0  0  0
 37 91  1  0  0  0  0
 38 39  1  0  0  0  0
 38 45  1  0  0  0  0
 38 72  1  6  0  0  0
 39 40  1  0  0  0  0
 39 73  1  0  0  0  0
 39 92  1  0  0  0  0
 40 46  1  0  0  0  0
 40 74  1  0  0  0  0
 41 42  1  0  0  0  0
 41 43  1  0  0  0  0
 41 44  1  0  0  0  0
M  CHG  2   9   1  13   1
M  END
$$$$
