lig_23476
     RDKit          3D

 48 50  0  0  0  0  0  0  0  0999 V2000
   41.0400   17.2700   11.8800 O   0  0  0  0  0  0  0  0  0  0  0  0
   40.2500   17.0700   12.8200 C   0  0  0  0  0  0  0  0  0  0  0  0
   39.1300   17.6100   12.9500 O   0  0  0  0  0  0  0  0  0  0  0  0
   40.7000   16.1400   13.9500 C   0  0  0  0  0  0  0  0  0  0  0  0
   42.0500   15.7500   13.7800 O   0  0  0  0  0  0  0  0  0  0  0  0
   42.5100   14.9200   14.7400 C   0  0  0  0  0  0  0  0  0  0  0  0
   42.1900   13.5700   14.8700 C   0  0  0  0  0  0  0  0  0  0  0  0
   41.0994   12.6263   13.5068 Br  0  0  0  0  0  0  0  0  0  0  0  0
   42.6200   12.9300   16.0200 C   0  0  0  0  0  0  0  0  0  0  0  0
   42.3600   11.5800   16.4900 C   0  0  0  0  0  0  0  0  0  0  0  0
   43.3800   10.8000   17.0300 C   0  0  0  0  0  0  0  0  0  0  0  0
   43.1300    9.5000   17.4600 C   0  0  0  0  0  0  0  0  0  0  0  0
   41.8500    8.9600   17.3400 C   0  0  0  0  0  0  0  0  0  0  0  0
   40.8100    9.7200   16.7900 C   0  0  0  0  0  0  0  0  0  0  0  0
   39.5000    9.2300   16.6200 N   0  0  0  0  0  0  0  0  0  0  0  0
   41.0800   11.0300   16.3900 C   0  0  0  0  0  0  0  0  0  0  0  0
   43.6400   14.0300   16.9200 S   0  0  0  0  0  0  0  0  0  0  0  0
   43.3700   15.3200   15.7700 C   0  0  0  0  0  0  0  0  0  0  0  0
   44.0500   16.6100   16.0400 C   0  0  0  0  0  0  0  0  0  0  0  0
   43.8800   17.5600   15.2400 O   0  0  0  0  0  0  0  0  0  0  0  0
   44.7800   16.7200   17.0500 O   0  0  0  0  0  0  0  0  0  0  0  0
   40.0500   15.2600   13.9700 H   0  0  0  0  0  0  0  0  0  0  0  0
   40.5800   16.6600   14.9000 H   0  0  0  0  0  0  0  0  0  0  0  0
   44.3800   11.2000   17.1300 H   0  0  0  0  0  0  0  0  0  0  0  0
   43.9200    8.9000   17.9000 H   0  0  0  0  0  0  0  0  0  0  0  0
   41.6700    7.9400   17.6700 H   0  0  0  0  0  0  0  0  0  0  0  0
   38.7500    9.9000   16.7100 H   0  0  0  0  0  0  0  0  0  0  0  0
   39.6900    7.2800   17.2000 H   0  0  0  0  0  0  0  0  0  0  0  0
   40.3000   11.6600   15.9900 H   0  0  0  0  0  0  0  0  0  0  0  0
   39.2600    7.8300   16.3600 C   0  0  0  0  0  0  0  0  0  0  0  0
   37.7400    7.5800   16.3500 C   0  0  0  0  0  0  0  0  0  0  0  0
   37.0400    7.9000   15.0200 C   0  0  0  0  0  0  0  0  0  0  0  0
   37.0300    6.6900   14.0700 C   0  0  0  0  0  0  0  0  0  0  0  0
   38.3800    6.4100   13.4100 C   0  0  0  0  0  0  0  0  0  0  0  0
   39.5200    6.1500   14.4100 C   0  0  0  0  0  0  0  0  0  0  0  0
   40.0100    7.4500   15.0700 C   0  0  0  0  0  0  0  0  0  0  0  0
   37.5300    6.5300   16.6600 H   0  0  0  0  0  0  0  0  0  0  0  0
   37.2900    8.2200   17.1500 H   0  0  0  0  0  0  0  0  0  0  0  0
   35.9900    8.1600   15.2400 H   0  0  0  0  0  0  0  0  0  0  0  0
   37.5000    8.7800   14.5300 H   0  0  0  0  0  0  0  0  0  0  0  0
   36.6800    5.7800   14.6100 H   0  0  0  0  0  0  0  0  0  0  0  0
   36.2900    6.8900   13.2700 H   0  0  0  0  0  0  0  0  0  0  0  0
   38.2700    5.5000   12.7700 H   0  0  0  0  0  0  0  0  0  0  0  0
   38.6500    7.2500   12.7200 H   0  0  0  0  0  0  0  0  0  0  0  0
   39.2200    5.4000   15.1700 H   0  0  0  0  0  0  0  0  0  0  0  0
   40.3700    5.7100   13.8400 H   0  0  0  0  0  0  0  0  0  0  0  0
   41.0900    7.3200   15.3300 H   0  0  0  0  0  0  0  0  0  0  0  0
   39.9700    8.2900   14.3500 H   0  0  0  0  0  0  0  0  0  0  0  0
  1  2  2  0
  2  3  1  0
  2  4  1  0
  4  5  1  0
  4 22  1  0
  4 23  1  0
  5  6  1  0
  6  7  1  0
  6 18  2  0
  7  8  1  0
  7  9  2  0
  9 10  1  0
  9 17  1  0
 10 11  2  0
 10 16  1  0
 11 12  1  0
 11 24  1  0
 12 13  2  0
 12 25  1  0
 13 14  1  0
 13 26  1  0
 14 15  1  0
 14 16  2  0
 15 27  1  0
 15 30  1  0
 16 29  1  0
 17 18  1  0
 18 19  1  0
 19 20  2  0
 19 21  1  0
 28 30  1  0
 30 31  1  0
 30 36  1  0
 31 32  1  0
 31 37  1  0
 31 38  1  0
 32 33  1  0
 32 39  1  0
 32 40  1  0
 33 34  1  0
 33 41  1  0
 33 42  1  0
 34 35  1  0
 34 43  1  0
 34 44  1  0
 35 36  1  0
 35 45  1  0
 35 46  1  0
 36 47  1  0
 36 48  1  0
M  CHG  2   3  -1  21  -1
M  END
$$$$
