CatS_30
 OpenBabel05281909343D

 92 96  0  0  1  0  0  0  0  0999 V2000
    2.2310   16.6400   -4.3390 C   0  0  0  0  0  0  0  0  0  0  0  0
    1.3871   17.6880   -4.5419 C   0  0  0  0  0  0  0  0  0  0  0  0
    1.6510   18.7711   -4.0260 O   0  0  0  0  0  0  0  0  0  0  0  0
    0.2859   17.5010   -5.3040 N   0  0  0  0  0  0  0  0  0  0  0  0
   -0.1250   16.1701   -5.7828 C   0  0  1  0  0  0  0  0  0  0  0  0
   -1.1911   15.5858   -4.8378 C   0  0  0  0  0  0  0  0  0  0  0  0
   -1.6670   14.2211   -5.3741 C   0  0  0  0  0  0  0  0  0  0  0  0
   -2.2338   14.3440   -6.7310 N   0  3  1  0  0  0  0  0  0  0  0  0
   -1.2229   14.8908   -7.6592 C   0  0  0  0  0  0  0  0  0  0  0  0
   -0.7220   16.2748   -7.1990 C   0  0  0  0  0  0  0  0  0  0  0  0
   -2.7051   13.0261   -7.1968 C   0  0  0  0  0  0  0  0  0  0  0  0
   -3.4130   13.0570   -8.5708 C   0  0  0  0  0  0  0  0  0  0  0  0
   -3.3400   11.6548   -9.2000 C   0  0  0  0  0  0  0  0  0  0  0  0
   -4.3390   10.6961   -8.7089 N   0  0  0  0  0  0  0  0  0  0  0  0
   -5.5310   10.3250   -9.2409 C   0  0  0  0  0  0  0  0  0  0  0  0
   -6.2050    9.4821   -8.4579 C   0  0  0  0  0  0  0  0  0  0  0  0
   -5.3401    9.2810   -7.3581 C   0  0  0  0  0  0  0  0  0  0  0  0
   -4.2649   10.0230   -7.5361 N   0  0  0  0  0  0  0  0  0  0  0  0
   -5.5280    8.4131   -6.2060 C   0  0  0  0  0  0  0  0  0  0  0  0
   -4.4680    7.7389   -5.6279 C   0  0  0  0  0  0  0  0  0  0  0  0
   -4.6601    6.9418   -4.5279 C   0  0  0  0  0  0  0  0  0  0  0  0
   -5.9099    6.7701   -3.9697 C   0  0  0  0  0  0  0  0  0  0  0  0
   -6.9760    7.4399   -4.5580 C   0  0  0  0  0  0  0  0  0  0  0  0
   -6.7840    8.2540   -5.6508 C   0  0  0  0  0  0  0  0  0  0  0  0
   -8.6621    7.2889   -3.9532 S   0  0  0  0  0  0  0  0  0  0  0  0
   -9.2131    8.9470   -3.4730 C   0  0  0  0  0  0  0  0  0  0  0  0
   -8.0199    9.8149   -3.0209 C   0  0  0  0  0  0  0  0  0  0  0  0
   -8.4072   10.8680   -2.0652 N   0  3  0  0  0  0  0  0  0  0  0  0
   -9.7688   11.3440   -2.3741 C   0  0  0  0  0  0  0  0  0  0  0  0
  -10.2311   12.4111   -1.3620 C   0  0  0  0  0  0  0  0  0  0  0  0
   -9.2441   13.5921   -1.3598 C   0  0  0  0  0  0  0  0  0  0  0  0
   -7.8200   13.0738   -1.0852 C   0  0  0  0  0  0  0  0  0  0  0  0
   -7.4531   11.9951   -2.1232 C   0  0  0  0  0  0  0  0  0  0  0  0
   -5.9452    5.8568   -2.7419 C   0  0  0  0  0  0  0  0  0  0  0  0
   -4.9470    4.8880   -2.7811 F   0  0  0  0  0  0  0  0  0  0  0  0
   -7.1420    5.1660   -2.5929 F   0  0  0  0  0  0  0  0  0  0  0  0
   -5.7382    6.5909   -1.5781 F   0  0  0  0  0  0  0  0  0  0  0  0
   -7.5841    8.9491   -8.8240 C   0  0  0  0  0  0  0  0  0  0  0  0
   -8.2562    9.7460   -9.8749 N   0  0  0  0  0  0  0  0  0  0  0  0
   -7.3181    9.9450  -11.0011 C   0  0  0  0  0  0  0  0  0  0  0  0
   -6.0940   10.7930  -10.5731 C   0  0  0  0  0  0  0  0  0  0  0  0
   -9.7909    9.3099  -10.1699 S   0  0  0  0  0  0  0  0  0  0  0  0
   -9.8659    7.9421   -9.7660 O   0  0  0  0  0  0  0  0  0  0  0  0
  -10.0691    9.5799  -11.5451 O   0  0  0  0  0  0  0  0  0  0  0  0
  -10.9189   10.2890   -9.1311 C   0  0  0  0  0  0  0  0  0  0  0  0
   -0.2091   18.2001   -5.5070 H   0  0  0  0  0  0  0  0  0  0  0  0
    0.8140   15.4248   -5.8332 H   0  0  0  0  0  0  0  0  0  0  0  0
   -0.7248   15.4541   -3.7392 H   0  0  0  0  0  0  0  0  0  0  0  0
   -2.1312   16.3299   -4.7860 H   0  0  0  0  0  0  0  0  0  0  0  0
   -2.5059   13.8240   -4.6130 H   0  0  0  0  0  0  0  0  0  0  0  0
   -0.7429   13.4542   -5.3879 H   0  0  0  0  0  0  0  0  0  0  0  0
   -1.7001   15.0322   -8.7500 H   0  0  0  0  0  0  0  0  0  0  0  0
   -0.2800   14.1499   -7.7228 H   0  0  0  0  0  0  0  0  0  0  0  0
    0.1170   16.6709   -7.9592 H   0  0  0  0  0  0  0  0  0  0  0  0
   -1.6449   17.0419   -7.1910 H   0  0  0  0  0  0  0  0  0  0  0  0
   -3.5301   12.6210   -6.4258 H   0  0  0  0  0  0  0  0  0  0  0  0
   -1.8130   12.2241   -7.2249 H   0  0  0  0  0  0  0  0  0  0  0  0
   -4.5660   13.3630   -8.4239 H   0  0  0  0  0  0  0  0  0  0  0  0
   -2.8850   13.8320   -9.3198 H   0  0  0  0  0  0  0  0  0  0  0  0
   -3.4750   11.7689  -10.3871 H   0  0  0  0  0  0  0  0  0  0  0  0
   -2.2548   11.1929   -8.9839 H   0  0  0  0  0  0  0  0  0  0  0  0
   -3.5491    7.8379   -6.0089 H   0  0  0  0  0  0  0  0  0  0  0  0
   -3.8722    6.4760   -4.1252 H   0  0  0  0  0  0  0  0  0  0  0  0
   -7.5650    8.7319   -6.0519 H   0  0  0  0  0  0  0  0  0  0  0  0
   -9.7311    9.4500   -4.4321 H   0  0  0  0  0  0  0  0  0  0  0  0
  -10.0248    8.8690   -2.5919 H   0  0  0  0  0  0  0  0  0  0  0  0
   -7.5952   10.3441   -4.0119 H   0  0  0  0  0  0  0  0  0  0  0  0
   -7.1412    9.1330   -2.5669 H   0  0  0  0  0  0  0  0  0  0  0  0
  -10.5490   10.4350   -2.3161 H   0  0  0  0  0  0  0  0  0  0  0  0
   -9.7886   11.8009   -3.4842 H   0  0  0  0  0  0  0  0  0  0  0  0
  -10.2648   11.9169   -0.2701 H   0  0  0  0  0  0  0  0  0  0  0  0
  -11.3258   12.8009   -1.6600 H   0  0  0  0  0  0  0  0  0  0  0  0
   -9.5602   14.3840   -0.5172 H   0  0  0  0  0  0  0  0  0  0  0  0
   -9.2640   14.1291   -2.4330 H   0  0  0  0  0  0  0  0  0  0  0  0
   -7.0417   13.9839   -1.1570 H   0  0  0  0  0  0  0  0  0  0  0  0
   -7.7741   12.5988    0.0151 H   0  0  0  0  0  0  0  0  0  0  0  0
   -7.4590   12.4810   -3.2211 H   0  0  0  0  0  0  0  0  0  0  0  0
   -6.3400   11.6219   -1.8750 H   0  0  0  0  0  0  0  0  0  0  0  0
   -7.4860    7.8080   -9.1821 H   0  0  0  0  0  0  0  0  0  0  0  0
   -8.2801    8.9950   -7.8461 H   0  0  0  0  0  0  0  0  0  0  0  0
   -6.9428    8.8781  -11.4010 H   0  0  0  0  0  0  0  0  0  0  0  0
   -7.8698   10.5230  -11.8949 H   0  0  0  0  0  0  0  0  0  0  0  0
   -6.4269   11.9410  -10.4690 H   0  0  0  0  0  0  0  0  0  0  0  0
   -5.2560   10.6982  -11.4260 H   0  0  0  0  0  0  0  0  0  0  0  0
  -11.0140   11.4132   -9.5422 H   0  0  0  0  0  0  0  0  0  0  0  0
  -12.0139    9.7990   -9.1410 H   0  0  0  0  0  0  0  0  0  0  0  0
  -10.5202   10.3161   -7.9992 H   0  0  0  0  0  0  0  0  0  0  0  0
    3.2531   16.9827   -4.4054 H   0  0  0  0  0  0  0  0  0  0  0  0
    2.0551   16.2202   -3.3596 H   0  0  0  0  0  0  0  0  0  0  0  0
    2.0551   15.8849   -5.0909 H   0  0  0  0  0  0  0  0  0  0  0  0
   -2.9459   14.9138   -6.7055 H   0  0  0  0  0  0  0  0  0  0  0  0
   -8.4054   10.5164   -1.2236 H   0  0  0  0  0  0  0  0  0  0  0  0
  1  2  1  0  0  0  0
  2  3  2  0  0  0  0
  2  4  1  0  0  0  0
  4  5  1  0  0  0  0
  4 46  1  0  0  0  0
  5  6  1  0  0  0  0
  5 10  1  0  0  0  0
  5 47  1  6  0  0  0
  6  7  1  0  0  0  0
  6 48  1  0  0  0  0
  6 49  1  0  0  0  0
  7  8  1  0  0  0  0
  7 50  1  0  0  0  0
  7 51  1  0  0  0  0
  8  9  1  0  0  0  0
  8 11  1  0  0  0  0
  8 91  1  1  0  0  0
  9 10  1  0  0  0  0
  9 52  1  0  0  0  0
  9 53  1  0  0  0  0
 10 54  1  0  0  0  0
 10 55  1  0  0  0  0
 11 12  1  0  0  0  0
 11 56  1  0  0  0  0
 11 57  1  0  0  0  0
 12 13  1  0  0  0  0
 12 58  1  0  0  0  0
 12 59  1  0  0  0  0
 13 14  1  0  0  0  0
 13 60  1  0  0  0  0
 13 61  1  0  0  0  0
 14 15  1  0  0  0  0
 14 18  1  0  0  0  0
 15 16  2  0  0  0  0
 15 41  1  0  0  0  0
 16 17  1  0  0  0  0
 16 38  1  0  0  0  0
 17 18  2  0  0  0  0
 17 19  1  0  0  0  0
 19 20  2  0  0  0  0
 19 24  1  0  0  0  0
 20 21  1  0  0  0  0
 20 62  1  0  0  0  0
 21 22  2  0  0  0  0
 21 63  1  0  0  0  0
 22 23  1  0  0  0  0
 22 34  1  0  0  0  0
 23 24  2  0  0  0  0
 23 25  1  0  0  0  0
 24 64  1  0  0  0  0
 25 26  1  0  0  0  0
 26 27  1  0  0  0  0
 26 65  1  0  0  0  0
 26 66  1  0  0  0  0
 27 28  1  0  0  0  0
 27 67  1  0  0  0  0
 27 68  1  0  0  0  0
 28 29  1  0  0  0  0
 28 33  1  0  0  0  0
 29 30  1  0  0  0  0
 29 69  1  0  0  0  0
 29 70  1  0  0  0  0
 30 31  1  0  0  0  0
 30 71  1  0  0  0  0
 30 72  1  0  0  0  0
 31 32  1  0  0  0  0
 31 73  1  0  0  0  0
 31 74  1  0  0  0  0
 32 33  1  0  0  0  0
 32 75  1  0  0  0  0
 32 76  1  0  0  0  0
 33 77  1  0  0  0  0
 33 78  1  0  0  0  0
 34 35  1  0  0  0  0
 34 36  1  0  0  0  0
 34 37  1  0  0  0  0
 38 39  1  0  0  0  0
 38 79  1  0  0  0  0
 38 80  1  0  0  0  0
 39 40  1  0  0  0  0
 39 42  1  0  0  0  0
 40 41  1  0  0  0  0
 40 81  1  0  0  0  0
 40 82  1  0  0  0  0
 41 83  1  0  0  0  0
 41 84  1  0  0  0  0
 42 43  2  0  0  0  0
 42 44  2  0  0  0  0
 42 45  1  0  0  0  0
 45 85  1  0  0  0  0
 45 86  1  0  0  0  0
 45 87  1  0  0  0  0
 88  1  1  0  0  0  0
 89  1  1  0  0  0  0
 90  1  1  0  0  0  0
 92 28  1  0  0  0  0
M  CHG  2   8   1  28   1
M  END
$$$$
