
     RDKit          3D

 29 32  0  0  0  0  0  0  0  0999 V2000
    0.0495    0.5520   -0.9527 C   0  0  0  0  0  0  0  0  0  0  0  0
   -0.4152    1.4871    0.1431 C   0  0  0  0  0  0  0  0  0  0  0  0
    0.4059    3.0828    0.1453 S   0  0  0  0  0  0  0  0  0  0  0  0
    0.1270    3.7580   -1.0983 O   0  0  0  0  0  0  0  0  0  0  0  0
    0.1124    3.7194    1.4172 O   0  0  0  0  0  0  0  0  0  0  0  0
    2.0641    2.7172    0.1633 N   0  0  0  0  0  0  0  0  0  0  0  0
    2.9095    3.9551    0.1795 C   0  0  0  0  0  0  0  0  0  0  0  0
    4.3957    3.7039    0.4029 C   0  0  0  0  0  0  0  0  0  0  0  0
    5.2813    4.7911    0.2990 C   0  0  0  0  0  0  0  0  0  0  0  0
    6.6525    4.6090    0.4748 C   0  0  0  0  0  0  0  0  0  0  0  0
    7.1490    3.3347    0.7321 C   0  0  0  0  0  0  0  0  0  0  0  0
    8.8452    3.1091    0.9276 Cl  0  0  0  0  0  0  0  0  0  0  0  0
    6.2847    2.2422    0.8466 C   0  0  0  0  0  0  0  0  0  0  0  0
    4.8959    2.4234    0.7388 C   0  0  0  0  0  0  0  0  0  0  0  0
    3.9138    1.2773    0.8890 C   0  0  0  0  0  0  0  0  0  0  0  0
    4.2076    0.1645    1.8867 C   0  0  0  0  0  0  0  0  0  0  0  0
    4.4831   -0.9791    1.5174 O   0  0  0  0  0  0  0  0  0  0  0  0
    4.0057    0.3954    3.2433 N   0  0  0  0  0  0  0  0  0  0  0  0
    5.0235    1.1696    3.8755 C   0  0  0  0  0  0  0  0  0  0  0  0
    4.8818    2.5497    3.9827 C   0  0  0  0  0  0  0  0  0  0  0  0
    5.8970    3.3825    4.2814 N   0  0  0  0  0  0  0  0  0  0  0  0
    7.1106    2.8079    4.4483 C   0  0  0  0  0  0  0  0  0  0  0  0
    7.3528    1.4295    4.4328 C   0  0  0  0  0  0  0  0  0  0  0  0
    8.6424    0.8913    4.5874 C   0  0  0  0  0  0  0  0  0  0  0  0
    8.8429   -0.4894    4.6109 C   0  0  0  0  0  0  0  0  0  0  0  0
    7.7589   -1.3490    4.4999 C   0  0  0  0  0  0  0  0  0  0  0  0
    6.4840   -0.8276    4.2920 C   0  0  0  0  0  0  0  0  0  0  0  0
    6.2597    0.5706    4.2162 C   0  0  0  0  0  0  0  0  0  0  0  0
    2.5097    1.7873    1.2236 C   0  0  0  0  0  0  0  0  0  0  0  0
  1  2  1  0
  2  3  1  0
  3  4  2  0
  3  5  2  0
  3  6  1  0
  6  7  1  0
  6 29  1  0
  7  8  1  0
  8  9  1  0
  8 14  2  0
  9 10  2  0
 10 11  1  0
 11 12  1  0
 11 13  2  0
 13 14  1  0
 14 15  1  0
 15 16  1  0
 15 29  1  0
 16 17  2  0
 16 18  1  0
 18 19  1  0
 19 20  2  0
 19 28  1  0
 20 21  1  0
 21 22  2  0
 22 23  1  0
 23 24  1  0
 23 28  2  0
 24 25  2  0
 25 26  1  0
 26 27  2  0
 27 28  1  0
M  END
$$$$
