
     RDKit          3D

 32 36  0  0  0  0  0  0  0  0999 V2000
    0.9753    0.8109    0.3809 C   0  0  0  0  0  0  0  0  0  0  0  0
    0.2676    1.1549   -0.9106 C   0  0  0  0  0  0  0  0  0  0  0  0
   -0.9624    0.3362   -1.3042 C   0  0  0  0  0  0  0  0  0  0  0  0
   -0.7961   -1.4493   -1.0754 S   0  0  0  0  0  0  0  0  0  0  0  0
    0.0904   -1.7643    0.0257 O   0  0  0  0  0  0  0  0  0  0  0  0
   -2.1359   -2.0043   -1.0714 O   0  0  0  0  0  0  0  0  0  0  0  0
   -0.0534   -2.0688   -2.4904 N   0  0  0  0  0  0  0  0  0  0  0  0
    1.2042   -1.4052   -2.8776 C   0  0  0  0  0  0  0  0  0  0  0  0
    1.8579   -2.0124   -4.0939 C   0  0  0  0  0  0  0  0  0  0  0  0
    2.6484   -1.2043   -4.9306 C   0  0  0  0  0  0  0  0  0  0  0  0
    3.2943   -1.7472   -6.0405 C   0  0  0  0  0  0  0  0  0  0  0  0
    3.1581   -3.1030   -6.3174 C   0  0  0  0  0  0  0  0  0  0  0  0
    3.9729   -3.7793   -7.6740 Cl  0  0  0  0  0  0  0  0  0  0  0  0
    2.3789   -3.9190   -5.4951 C   0  0  0  0  0  0  0  0  0  0  0  0
    1.7370   -3.3853   -4.3618 C   0  0  0  0  0  0  0  0  0  0  0  0
    0.8779   -4.2623   -3.4776 C   0  0  0  0  0  0  0  0  0  0  0  0
    1.5726   -5.4596   -2.8146 C   0  0  0  0  0  0  0  0  0  0  0  0
    1.0853   -6.5921   -2.8740 O   0  0  0  0  0  0  0  0  0  0  0  0
    2.6472   -5.2532   -1.9552 N   0  0  0  0  0  0  0  0  0  0  0  0
    3.8835   -4.8803   -2.5565 C   0  0  0  0  0  0  0  0  0  0  0  0
    4.3333   -3.5695   -2.4439 C   0  0  0  0  0  0  0  0  0  0  0  0
    5.3694   -3.0674   -3.1469 N   0  0  0  0  0  0  0  0  0  0  0  0
    5.9753   -3.9209   -4.0059 C   0  0  0  0  0  0  0  0  0  0  0  0
    5.6605   -5.2779   -4.1413 C   0  0  0  0  0  0  0  0  0  0  0  0
    6.3325   -6.1186   -5.0470 C   0  0  0  0  0  0  0  0  0  0  0  0
    6.0277   -7.4781   -5.1195 C   0  0  0  0  0  0  0  0  0  0  0  0
    5.0565   -8.0158   -4.2856 C   0  0  0  0  0  0  0  0  0  0  0  0
    4.3503   -7.1832   -3.4193 C   0  0  0  0  0  0  0  0  0  0  0  0
    4.6176   -5.7943   -3.3475 C   0  0  0  0  0  0  0  0  0  0  0  0
    0.1274   -3.5546   -2.3402 C   0  0  0  0  0  0  0  0  0  0  0  0
    0.1082    2.6524   -1.1440 C   0  0  0  0  0  0  0  0  0  0  0  0
    1.0714    1.8789   -1.9816 C   0  0  0  0  0  0  0  0  0  0  0  0
  1  2  1  0
  2  3  1  0
  2 31  1  0
  2 32  1  0
  3  4  1  0
  4  5  2  0
  4  6  2  0
  4  7  1  0
  7  8  1  0
  7 30  1  0
  8  9  1  0
  9 10  2  0
  9 15  1  0
 10 11  1  0
 11 12  2  0
 12 13  1  0
 12 14  1  0
 14 15  2  0
 15 16  1  0
 16 17  1  0
 16 30  1  0
 17 18  2  0
 17 19  1  0
 19 20  1  0
 20 21  2  0
 20 29  1  0
 21 22  1  0
 22 23  2  0
 23 24  1  0
 24 25  1  0
 24 29  2  0
 25 26  2  0
 26 27  1  0
 27 28  2  0
 28 29  1  0
 31 32  1  0
M  END
$$$$
