
     RDKit          3D

 32 36  0  0  0  0  0  0  0  0999 V2000
    1.0420   -0.2064   -0.0233 O   0  0  0  0  0  0  0  0  0  0  0  0
    2.2658   -0.1037    0.1007 C   0  0  0  0  0  0  0  0  0  0  0  0
    3.0397   -0.8678   -0.7443 N   0  0  0  0  0  0  0  0  0  0  0  0
    4.4446   -0.9520   -0.8208 C   0  0  0  0  0  0  0  0  0  0  0  0
    5.0453   -0.7392   -2.0596 C   0  0  0  0  0  0  0  0  0  0  0  0
    6.3779   -0.6471   -2.2489 N   0  0  0  0  0  0  0  0  0  0  0  0
    7.1537   -0.7873   -1.1504 C   0  0  0  0  0  0  0  0  0  0  0  0
    6.6731   -1.0827    0.1272 C   0  0  0  0  0  0  0  0  0  0  0  0
    7.5330   -1.2451    1.2290 C   0  0  0  0  0  0  0  0  0  0  0  0
    7.0295   -1.6117    2.4765 C   0  0  0  0  0  0  0  0  0  0  0  0
    5.6722   -1.8658    2.6251 C   0  0  0  0  0  0  0  0  0  0  0  0
    4.8135   -1.7005    1.5375 C   0  0  0  0  0  0  0  0  0  0  0  0
    5.2797   -1.2337    0.2864 C   0  0  0  0  0  0  0  0  0  0  0  0
    2.9052    0.9087    1.0648 C   0  0  0  0  0  0  0  0  0  0  0  0
    2.4902    0.6232    2.5159 C   0  0  0  0  0  0  0  0  0  0  0  0
    1.1437    1.1615    2.8515 N   0  0  0  0  0  0  0  0  0  0  0  0
    0.5393    0.7074    4.3772 S   0  0  0  0  0  0  0  0  0  0  0  0
    1.6051    0.9306    5.3322 O   0  0  0  0  0  0  0  0  0  0  0  0
   -0.7470    1.3474    4.5506 O   0  0  0  0  0  0  0  0  0  0  0  0
    0.2776   -1.0576    4.2507 C   0  0  0  0  0  0  0  0  0  0  0  0
   -0.6056   -1.4256    3.0822 C   0  0  0  0  0  0  0  0  0  0  0  0
   -1.1110   -2.8826    3.0947 C   0  0  0  0  0  0  0  0  0  0  0  0
   -2.4113   -2.3975    2.5870 N   0  0  0  0  0  0  0  0  0  0  0  0
   -2.1041   -1.0623    3.1528 C   0  0  0  0  0  0  0  0  0  0  0  0
    1.0827    2.6391    2.6656 C   0  0  0  0  0  0  0  0  0  0  0  0
    1.7726    3.1551    1.4205 C   0  0  0  0  0  0  0  0  0  0  0  0
    1.5967    4.5024    1.0597 C   0  0  0  0  0  0  0  0  0  0  0  0
    2.2497    5.0356   -0.0524 C   0  0  0  0  0  0  0  0  0  0  0  0
    3.0828    4.2246   -0.8148 C   0  0  0  0  0  0  0  0  0  0  0  0
    3.8986    4.8790   -2.1808 Cl  0  0  0  0  0  0  0  0  0  0  0  0
    3.2757    2.8882   -0.4686 C   0  0  0  0  0  0  0  0  0  0  0  0
    2.6302    2.3448    0.6571 C   0  0  0  0  0  0  0  0  0  0  0  0
  1  2  2  0
  2  3  1  0
  2 14  1  0
  3  4  1  0
  4  5  2  0
  4 13  1  0
  5  6  1  0
  6  7  2  0
  7  8  1  0
  8  9  1  0
  8 13  2  0
  9 10  2  0
 10 11  1  0
 11 12  2  0
 12 13  1  0
 14 15  1  0
 14 32  1  0
 15 16  1  0
 16 17  1  0
 16 25  1  0
 17 18  2  0
 17 19  2  0
 17 20  1  0
 20 21  1  0
 21 22  1  0
 21 24  1  0
 22 23  1  0
 23 24  1  0
 25 26  1  0
 26 27  2  0
 26 32  1  0
 27 28  1  0
 28 29  2  0
 29 30  1  0
 29 31  1  0
 31 32  2  0
M  END
$$$$
