
     RDKit          3D

 34 38  0  0  0  0  0  0  0  0999 V2000
    1.5827   -0.7969    1.1355 O   0  0  0  0  0  0  0  0  0  0  0  0
    2.3999    0.0831    0.8565 C   0  0  0  0  0  0  0  0  0  0  0  0
    3.0058    0.8003    1.8883 N   0  0  0  0  0  0  0  0  0  0  0  0
    4.3859    0.5334    2.1558 C   0  0  0  0  0  0  0  0  0  0  0  0
    4.7985   -0.7858    2.2480 C   0  0  0  0  0  0  0  0  0  0  0  0
    6.0818   -1.1771    2.3626 N   0  0  0  0  0  0  0  0  0  0  0  0
    7.0137   -0.2084    2.4001 C   0  0  0  0  0  0  0  0  0  0  0  0
    6.7197    1.1481    2.4043 C   0  0  0  0  0  0  0  0  0  0  0  0
    7.7496    2.0966    2.4699 C   0  0  0  0  0  0  0  0  0  0  0  0
    7.4478    3.4521    2.5180 C   0  0  0  0  0  0  0  0  0  0  0  0
    6.1179    3.8633    2.5032 C   0  0  0  0  0  0  0  0  0  0  0  0
    5.0845    2.9231    2.4009 C   0  0  0  0  0  0  0  0  0  0  0  0
    5.3605    1.5428    2.3260 C   0  0  0  0  0  0  0  0  0  0  0  0
    2.7261    0.4271   -0.6090 C   0  0  0  0  0  0  0  0  0  0  0  0
    3.7239   -0.5469   -1.2715 C   0  0  0  0  0  0  0  0  0  0  0  0
    5.1132   -0.2955   -0.8099 N   0  0  0  0  0  0  0  0  0  0  0  0
    6.3436   -1.3491   -1.3017 S   0  0  0  0  0  0  0  0  0  0  0  0
    6.3972   -1.2146   -2.7474 O   0  0  0  0  0  0  0  0  0  0  0  0
    7.5254   -1.0234   -0.5311 O   0  0  0  0  0  0  0  0  0  0  0  0
    5.9638   -3.0749   -1.0188 C   0  0  0  0  0  0  0  0  0  0  0  0
    5.2625   -3.6355    0.2148 C   0  0  0  0  0  0  0  0  0  0  0  0
    5.2204   -5.1967   -0.0206 C   0  0  0  0  0  0  0  0  0  0  0  0
    5.0274   -5.4746    1.7045 S   0  0  0  0  0  0  0  0  0  0  0  0
    5.8784   -6.5434    2.1837 O   0  0  0  0  0  0  0  0  0  0  0  0
    3.6485   -5.3135    2.1097 O   0  0  0  0  0  0  0  0  0  0  0  0
    5.8938   -3.9250    1.6332 C   0  0  0  0  0  0  0  0  0  0  0  0
    5.5218    1.1344   -1.1592 C   0  0  0  0  0  0  0  0  0  0  0  0
    4.4691    2.2081   -0.9419 C   0  0  0  0  0  0  0  0  0  0  0  0
    4.8375    3.5646   -0.9209 C   0  0  0  0  0  0  0  0  0  0  0  0
    3.8841    4.5652   -0.6977 C   0  0  0  0  0  0  0  0  0  0  0  0
    2.5456    4.2229   -0.5404 C   0  0  0  0  0  0  0  0  0  0  0  0
    1.3730    5.4434   -0.2338 Cl  0  0  0  0  0  0  0  0  0  0  0  0
    2.1567    2.8883   -0.5881 C   0  0  0  0  0  0  0  0  0  0  0  0
    3.1203    1.8769   -0.7637 C   0  0  0  0  0  0  0  0  0  0  0  0
  1  2  2  0
  2  3  1  0
  2 14  1  0
  3  4  1  0
  4  5  2  0
  4 13  1  0
  5  6  1  0
  6  7  2  0
  7  8  1  0
  8  9  1  0
  8 13  2  0
  9 10  2  0
 10 11  1  0
 11 12  2  0
 12 13  1  0
 14 15  1  0
 14 34  1  0
 15 16  1  0
 16 17  1  0
 16 27  1  0
 17 18  2  0
 17 19  2  0
 17 20  1  0
 20 21  1  0
 21 22  1  0
 21 26  1  0
 22 23  1  0
 23 24  2  0
 23 25  2  0
 23 26  1  0
 27 28  1  0
 28 29  2  0
 28 34  1  0
 29 30  1  0
 30 31  2  0
 31 32  1  0
 31 33  1  0
 33 34  2  0
M  END
$$$$
