
     RDKit          3D

 33 37  0  0  0  0  0  0  0  0999 V2000
   -1.3790    0.6764   -0.9119 N   0  0  0  0  0  0  0  0  0  0  0  0
   -0.4278    0.3464   -0.3437 C   0  0  0  0  0  0  0  0  0  0  0  0
    0.7899    0.0227    0.3651 C   0  0  0  0  0  0  0  0  0  0  0  0
    0.6724   -0.0613    1.8658 C   0  0  0  0  0  0  0  0  0  0  0  0
    0.1697   -1.7223    2.3419 S   0  0  0  0  0  0  0  0  0  0  0  0
    1.1447   -2.6726    1.8538 O   0  0  0  0  0  0  0  0  0  0  0  0
   -0.1681   -1.6912    3.7510 O   0  0  0  0  0  0  0  0  0  0  0  0
   -1.2774   -1.9914    1.5086 N   0  0  0  0  0  0  0  0  0  0  0  0
   -1.7133   -3.4218    1.5455 C   0  0  0  0  0  0  0  0  0  0  0  0
   -3.0163   -3.6573    0.8020 C   0  0  0  0  0  0  0  0  0  0  0  0
   -3.3317   -4.9661    0.3948 C   0  0  0  0  0  0  0  0  0  0  0  0
   -4.4650   -5.2131   -0.3764 C   0  0  0  0  0  0  0  0  0  0  0  0
   -5.2802   -4.1496   -0.7532 C   0  0  0  0  0  0  0  0  0  0  0  0
   -6.6489   -4.4517   -1.7544 Cl  0  0  0  0  0  0  0  0  0  0  0  0
   -5.0075   -2.8478   -0.3161 C   0  0  0  0  0  0  0  0  0  0  0  0
   -3.9049   -2.5931    0.5173 C   0  0  0  0  0  0  0  0  0  0  0  0
   -3.5627   -1.1856    0.9809 C   0  0  0  0  0  0  0  0  0  0  0  0
   -4.6420   -0.2965    1.5898 C   0  0  0  0  0  0  0  0  0  0  0  0
   -5.2175    0.5723    0.9317 O   0  0  0  0  0  0  0  0  0  0  0  0
   -4.8958   -0.3858    2.9713 N   0  0  0  0  0  0  0  0  0  0  0  0
   -5.8201   -1.4417    3.2990 C   0  0  0  0  0  0  0  0  0  0  0  0
   -5.3325   -2.7298    3.4781 C   0  0  0  0  0  0  0  0  0  0  0  0
   -5.9637   -3.8175    2.9987 N   0  0  0  0  0  0  0  0  0  0  0  0
   -7.0511   -3.5733    2.2239 C   0  0  0  0  0  0  0  0  0  0  0  0
   -7.6500   -2.3140    2.0634 C   0  0  0  0  0  0  0  0  0  0  0  0
   -8.6559   -2.0135    1.1278 C   0  0  0  0  0  0  0  0  0  0  0  0
   -9.2109   -0.7297    1.0634 C   0  0  0  0  0  0  0  0  0  0  0  0
   -8.8364    0.2437    1.9827 C   0  0  0  0  0  0  0  0  0  0  0  0
   -7.7925   -0.0196    2.8561 C   0  0  0  0  0  0  0  0  0  0  0  0
   -7.1236   -1.2613    2.8121 C   0  0  0  0  0  0  0  0  0  0  0  0
   -2.3987   -1.1373    1.9669 C   0  0  0  0  0  0  0  0  0  0  0  0
    1.8815   -0.7247   -0.3786 C   0  0  0  0  0  0  0  0  0  0  0  0
    2.0189    0.7512   -0.1753 C   0  0  0  0  0  0  0  0  0  0  0  0
  1  2  3  0
  2  3  1  0
  3  4  1  0
  3 32  1  0
  3 33  1  0
  4  5  1  0
  5  6  2  0
  5  7  2  0
  5  8  1  0
  8  9  1  0
  8 31  1  0
  9 10  1  0
 10 11  2  0
 10 16  1  0
 11 12  1  0
 12 13  2  0
 13 14  1  0
 13 15  1  0
 15 16  2  0
 16 17  1  0
 17 18  1  0
 17 31  1  0
 18 19  2  0
 18 20  1  0
 20 21  1  0
 21 22  2  0
 21 30  1  0
 22 23  1  0
 23 24  2  0
 24 25  1  0
 25 26  1  0
 25 30  2  0
 26 27  2  0
 27 28  1  0
 28 29  2  0
 29 30  1  0
 32 33  1  0
M  END
$$$$
