
     RDKit          3D

 32 36  0  0  0  0  0  0  0  0999 V2000
    0.8979   -0.7234   -0.7615 C   0  0  0  0  0  0  0  0  0  0  0  0
    0.2162    0.5724   -1.0488 N   0  0  0  0  0  0  0  0  0  0  0  0
   -1.2705    0.4122   -0.9786 C   0  0  0  0  0  0  0  0  0  0  0  0
   -2.1431    0.7492   -2.1612 C   0  0  0  0  0  0  0  0  0  0  0  0
   -2.0151   -0.6715   -1.7205 C   0  0  0  0  0  0  0  0  0  0  0  0
    0.8410    1.8119   -0.0314 S   0  0  0  0  0  0  0  0  0  0  0  0
   -0.0965    2.0525    1.0456 O   0  0  0  0  0  0  0  0  0  0  0  0
    2.2240    1.5150    0.2699 O   0  0  0  0  0  0  0  0  0  0  0  0
    0.8563    3.2135   -1.0102 N   0  0  0  0  0  0  0  0  0  0  0  0
   -0.4466    3.5502   -1.6164 C   0  0  0  0  0  0  0  0  0  0  0  0
   -0.5414    4.9261   -2.2409 C   0  0  0  0  0  0  0  0  0  0  0  0
   -1.5998    5.1872   -3.1312 C   0  0  0  0  0  0  0  0  0  0  0  0
   -1.7537    6.4471   -3.7075 C   0  0  0  0  0  0  0  0  0  0  0  0
   -0.8453    7.4545   -3.4032 C   0  0  0  0  0  0  0  0  0  0  0  0
   -1.0427    9.0153   -4.1010 Cl  0  0  0  0  0  0  0  0  0  0  0  0
    0.2128    7.2130   -2.5246 C   0  0  0  0  0  0  0  0  0  0  0  0
    0.3558    5.9559   -1.9071 C   0  0  0  0  0  0  0  0  0  0  0  0
    1.4934    5.6822   -0.9476 C   0  0  0  0  0  0  0  0  0  0  0  0
    1.7356    6.7316    0.1447 C   0  0  0  0  0  0  0  0  0  0  0  0
    2.8017    7.3476    0.2211 O   0  0  0  0  0  0  0  0  0  0  0  0
    0.8121    6.8904    1.1730 N   0  0  0  0  0  0  0  0  0  0  0  0
   -0.4354    7.4873    0.8294 C   0  0  0  0  0  0  0  0  0  0  0  0
   -1.5333    6.6865    0.5289 C   0  0  0  0  0  0  0  0  0  0  0  0
   -2.6792    7.1526   -0.0092 N   0  0  0  0  0  0  0  0  0  0  0  0
   -2.7213    8.4815   -0.2624 C   0  0  0  0  0  0  0  0  0  0  0  0
   -1.7121    9.3918    0.0707 C   0  0  0  0  0  0  0  0  0  0  0  0
   -1.8205   10.7656   -0.2109 C   0  0  0  0  0  0  0  0  0  0  0  0
   -0.8181   11.6549    0.1765 C   0  0  0  0  0  0  0  0  0  0  0  0
    0.3003   11.1858    0.8518 C   0  0  0  0  0  0  0  0  0  0  0  0
    0.4420    9.8200    1.0920 C   0  0  0  0  0  0  0  0  0  0  0  0
   -0.5493    8.8909    0.6896 C   0  0  0  0  0  0  0  0  0  0  0  0
    1.4049    4.3477   -0.2050 C   0  0  0  0  0  0  0  0  0  0  0  0
  1  2  1  0
  2  3  1  0
  2  6  1  0
  3  4  1  0
  3  5  1  0
  4  5  1  0
  6  7  2  0
  6  8  2  0
  6  9  1  0
  9 10  1  0
  9 32  1  0
 10 11  1  0
 11 12  2  0
 11 17  1  0
 12 13  1  0
 13 14  2  0
 14 15  1  0
 14 16  1  0
 16 17  2  0
 17 18  1  0
 18 19  1  0
 18 32  1  0
 19 20  2  0
 19 21  1  0
 21 22  1  0
 22 23  2  0
 22 31  1  0
 23 24  1  0
 24 25  2  0
 25 26  1  0
 26 27  1  0
 26 31  2  0
 27 28  2  0
 28 29  1  0
 29 30  2  0
 30 31  1  0
M  END
$$$$
