
     RDKit          3D

 33 37  0  0  0  0  0  0  0  0999 V2000
   -1.3788    0.6774   -0.9101 N   0  0  0  0  0  0  0  0  0  0  0  0
   -0.4283    0.3462   -0.3417 C   0  0  0  0  0  0  0  0  0  0  0  0
    0.7894    0.0216    0.3667 C   0  0  0  0  0  0  0  0  0  0  0  0
    0.6727   -0.0617    1.8676 C   0  0  0  0  0  0  0  0  0  0  0  0
    0.1703   -1.7225    2.3451 S   0  0  0  0  0  0  0  0  0  0  0  0
    1.1448   -2.6730    1.8567 O   0  0  0  0  0  0  0  0  0  0  0  0
   -0.1660   -1.6903    3.7546 O   0  0  0  0  0  0  0  0  0  0  0  0
   -1.2776   -1.9917    1.5136 N   0  0  0  0  0  0  0  0  0  0  0  0
   -1.7150   -3.4219    1.5516 C   0  0  0  0  0  0  0  0  0  0  0  0
   -3.0160   -3.6563    0.8041 C   0  0  0  0  0  0  0  0  0  0  0  0
   -3.3311   -4.9657    0.3939 C   0  0  0  0  0  0  0  0  0  0  0  0
   -4.4614   -5.2086   -0.3814 C   0  0  0  0  0  0  0  0  0  0  0  0
   -5.2679   -4.1422   -0.7550 C   0  0  0  0  0  0  0  0  0  0  0  0
   -6.3332   -4.3726   -1.5352 F   0  0  0  0  0  0  0  0  0  0  0  0
   -5.0008   -2.8425   -0.3197 C   0  0  0  0  0  0  0  0  0  0  0  0
   -3.9026   -2.5892    0.5177 C   0  0  0  0  0  0  0  0  0  0  0  0
   -3.5615   -1.1830    0.9849 C   0  0  0  0  0  0  0  0  0  0  0  0
   -4.6416   -0.2954    1.5949 C   0  0  0  0  0  0  0  0  0  0  0  0
   -5.2155    0.5758    0.9386 O   0  0  0  0  0  0  0  0  0  0  0  0
   -4.8966   -0.3873    2.9762 N   0  0  0  0  0  0  0  0  0  0  0  0
   -5.8214   -1.4437    3.3016 C   0  0  0  0  0  0  0  0  0  0  0  0
   -5.3335   -2.7322    3.4775 C   0  0  0  0  0  0  0  0  0  0  0  0
   -5.9620   -3.8181    2.9907 N   0  0  0  0  0  0  0  0  0  0  0  0
   -7.0454   -3.5711    2.2112 C   0  0  0  0  0  0  0  0  0  0  0  0
   -7.6455   -2.3117    2.0554 C   0  0  0  0  0  0  0  0  0  0  0  0
   -8.6475   -2.0071    1.1167 C   0  0  0  0  0  0  0  0  0  0  0  0
   -9.2040   -0.7237    1.0572 C   0  0  0  0  0  0  0  0  0  0  0  0
   -8.8345    0.2451    1.9835 C   0  0  0  0  0  0  0  0  0  0  0  0
   -7.7939   -0.0217    2.8597 C   0  0  0  0  0  0  0  0  0  0  0  0
   -7.1236   -1.2625    2.8119 C   0  0  0  0  0  0  0  0  0  0  0  0
   -2.3982   -1.1366    1.9717 C   0  0  0  0  0  0  0  0  0  0  0  0
    1.8804   -0.7262   -0.3774 C   0  0  0  0  0  0  0  0  0  0  0  0
    2.0183    0.7497   -0.1745 C   0  0  0  0  0  0  0  0  0  0  0  0
  1  2  3  0
  2  3  1  0
  3  4  1  0
  3 32  1  0
  3 33  1  0
  4  5  1  0
  5  6  2  0
  5  7  2  0
  5  8  1  0
  8  9  1  0
  8 31  1  0
  9 10  1  0
 10 11  2  0
 10 16  1  0
 11 12  1  0
 12 13  2  0
 13 14  1  0
 13 15  1  0
 15 16  2  0
 16 17  1  0
 17 18  1  0
 17 31  1  0
 18 19  2  0
 18 20  1  0
 20 21  1  0
 21 22  2  0
 21 30  1  0
 22 23  1  0
 23 24  2  0
 24 25  1  0
 25 26  1  0
 25 30  2  0
 26 27  2  0
 27 28  1  0
 28 29  2  0
 29 30  1  0
 32 33  1  0
M  END
$$$$
