
     RDKit          3D

 34 38  0  0  0  0  0  0  0  0999 V2000
    0.6920    0.4332   -0.0135 C   0  0  0  0  0  0  0  0  0  0  0  0
    0.3050   -0.9328   -0.0196 O   0  0  0  0  0  0  0  0  0  0  0  0
    0.8211   -1.8045   -1.0562 C   0  0  0  0  0  0  0  0  0  0  0  0
    0.1820   -1.5363   -2.4168 C   0  0  0  0  0  0  0  0  0  0  0  0
   -1.5964   -1.6591   -2.5372 S   0  0  0  0  0  0  0  0  0  0  0  0
   -2.2147   -0.8157   -1.5371 O   0  0  0  0  0  0  0  0  0  0  0  0
   -1.9220   -1.4608   -3.9378 O   0  0  0  0  0  0  0  0  0  0  0  0
   -2.0187   -3.2637   -2.1930 N   0  0  0  0  0  0  0  0  0  0  0  0
   -1.3648   -4.2926   -3.0249 C   0  0  0  0  0  0  0  0  0  0  0  0
   -1.6712   -5.6880   -2.5245 C   0  0  0  0  0  0  0  0  0  0  0  0
   -0.7306   -6.7084   -2.7566 C   0  0  0  0  0  0  0  0  0  0  0  0
   -1.0395   -8.0346   -2.4693 C   0  0  0  0  0  0  0  0  0  0  0  0
   -2.3124   -8.3516   -2.0146 C   0  0  0  0  0  0  0  0  0  0  0  0
   -2.7297   -9.9954   -1.7237 Cl  0  0  0  0  0  0  0  0  0  0  0  0
   -3.2593   -7.3483   -1.7982 C   0  0  0  0  0  0  0  0  0  0  0  0
   -2.9298   -5.9914   -1.9558 C   0  0  0  0  0  0  0  0  0  0  0  0
   -3.9358   -4.8621   -1.6768 C   0  0  0  0  0  0  0  0  0  0  0  0
   -4.9332   -4.5930   -0.3023 C   0  0  0  0  0  0  0  0  0  0  0  0
   -6.0225   -4.1299   -0.7503 O   0  0  0  0  0  0  0  0  0  0  0  0
   -4.3584   -4.8985    1.5428 N   0  0  0  0  0  0  0  0  0  0  0  0
   -3.1053   -5.6170    1.8599 C   0  0  0  0  0  0  0  0  0  0  0  0
   -1.9651   -4.9521    2.3739 C   0  0  0  0  0  0  0  0  0  0  0  0
   -1.4250   -3.7375    2.0031 N   0  0  0  0  0  0  0  0  0  0  0  0
   -2.1244   -3.0115    1.1245 C   0  0  0  0  0  0  0  0  0  0  0  0
   -3.2735   -3.5968    0.6927 C   0  0  0  0  0  0  0  0  0  0  0  0
   -4.8197   -2.8830    1.1399 C   0  0  0  0  0  0  0  0  0  0  0  0
   -6.2645   -3.8686    1.4497 C   0  0  0  0  0  0  0  0  0  0  0  0
   -6.3159   -5.6213    1.1847 C   0  0  0  0  0  0  0  0  0  0  0  0
   -4.8957   -6.4899    0.6490 C   0  0  0  0  0  0  0  0  0  0  0  0
   -3.3933   -5.4367    0.6614 C   0  0  0  0  0  0  0  0  0  0  0  0
   -3.5139   -3.4835   -2.2600 C   0  0  0  0  0  0  0  0  0  0  0  0
    2.3910   -1.8190   -1.1877 C   0  0  0  0  0  0  0  0  0  0  0  0
    2.3178   -3.3470   -1.3478 C   0  0  0  0  0  0  0  0  0  0  0  0
    0.9932   -3.2876   -0.5708 C   0  0  0  0  0  0  0  0  0  0  0  0
  1  2  1  0
  2  3  1  0
  3  4  1  0
  3 32  1  0
  3 34  1  0
  4  5  1  0
  5  6  2  0
  5  7  2  0
  5  8  1  0
  8  9  1  0
  8 31  1  0
  9 10  1  0
 10 11  2  0
 10 16  1  0
 11 12  1  0
 12 13  2  0
 13 14  1  0
 13 15  1  0
 15 16  2  0
 16 17  1  0
 17 18  1  0
 17 31  1  0
 18 19  2  0
 18 20  1  0
 20 21  1  0
 21 22  2  0
 21 30  1  0
 22 23  1  0
 23 24  2  0
 24 25  1  0
 25 26  1  0
 25 30  2  0
 26 27  2  0
 27 28  1  0
 28 29  2  0
 29 30  1  0
 32 33  1  0
 33 34  1  0
M  END
$$$$
