
     RDKit          3D

 30 33  0  0  0  0  0  0  0  0999 V2000
    1.3894   -1.0713    0.7832 O   0  0  0  0  0  0  0  0  0  0  0  0
    2.2272   -0.1650    0.8363 C   0  0  0  0  0  0  0  0  0  0  0  0
    2.7618    0.1511    2.0773 N   0  0  0  0  0  0  0  0  0  0  0  0
    4.1026   -0.2665    2.3540 C   0  0  0  0  0  0  0  0  0  0  0  0
    4.4236   -1.6217    2.3101 C   0  0  0  0  0  0  0  0  0  0  0  0
    5.6613   -2.1237    2.5015 N   0  0  0  0  0  0  0  0  0  0  0  0
    6.6386   -1.2166    2.7264 C   0  0  0  0  0  0  0  0  0  0  0  0
    6.4291    0.1569    2.8712 C   0  0  0  0  0  0  0  0  0  0  0  0
    7.4880    1.0421    3.1409 C   0  0  0  0  0  0  0  0  0  0  0  0
    7.2435    2.3991    3.3425 C   0  0  0  0  0  0  0  0  0  0  0  0
    5.9396    2.8797    3.2944 C   0  0  0  0  0  0  0  0  0  0  0  0
    4.8839    2.0131    2.9964 C   0  0  0  0  0  0  0  0  0  0  0  0
    5.1088    0.6435    2.7395 C   0  0  0  0  0  0  0  0  0  0  0  0
    2.5785    0.6650   -0.4084 C   0  0  0  0  0  0  0  0  0  0  0  0
    3.6031    0.0150   -1.3442 C   0  0  0  0  0  0  0  0  0  0  0  0
    4.9740    0.1114   -0.7857 N   0  0  0  0  0  0  0  0  0  0  0  0
    6.2000   -0.7608   -1.5720 S   0  0  0  0  0  0  0  0  0  0  0  0
    6.4030   -0.1112   -2.8532 O   0  0  0  0  0  0  0  0  0  0  0  0
    7.3114   -0.8687   -0.6480 O   0  0  0  0  0  0  0  0  0  0  0  0
    5.5895   -2.4012   -1.9419 C   0  0  0  0  0  0  0  0  0  0  0  0
    5.1884   -3.2305   -0.7492 C   0  0  0  0  0  0  0  0  0  0  0  0
    3.7900   -3.1055   -0.5107 O   0  0  0  0  0  0  0  0  0  0  0  0
    5.3853    1.5529   -0.6109 C   0  0  0  0  0  0  0  0  0  0  0  0
    4.2810    2.5122   -0.1950 C   0  0  0  0  0  0  0  0  0  0  0  0
    4.5976    3.8499    0.0961 C   0  0  0  0  0  0  0  0  0  0  0  0
    3.5985    4.7600    0.4539 C   0  0  0  0  0  0  0  0  0  0  0  0
    2.2714    4.3458    0.5057 C   0  0  0  0  0  0  0  0  0  0  0  0
    1.0356    5.4679    0.9207 Cl  0  0  0  0  0  0  0  0  0  0  0  0
    1.9372    3.0251    0.2228 C   0  0  0  0  0  0  0  0  0  0  0  0
    2.9401    2.1022   -0.1193 C   0  0  0  0  0  0  0  0  0  0  0  0
  1  2  2  0
  2  3  1  0
  2 14  1  0
  3  4  1  0
  4  5  2  0
  4 13  1  0
  5  6  1  0
  6  7  2  0
  7  8  1  0
  8  9  1  0
  8 13  2  0
  9 10  2  0
 10 11  1  0
 11 12  2  0
 12 13  1  0
 14 15  1  0
 14 30  1  0
 15 16  1  0
 16 17  1  0
 16 23  1  0
 17 18  2  0
 17 19  2  0
 17 20  1  0
 20 21  1  0
 21 22  1  0
 23 24  1  0
 24 25  2  0
 24 30  1  0
 25 26  1  0
 26 27  2  0
 27 28  1  0
 27 29  1  0
 29 30  2  0
M  END
$$$$
