*****
 OpenBabel06282212483D

 68 72  0  0  1  0  0  0  0  0999 V2000
    3.7841    2.6248    0.2833 O   0  0  0  0  0  0  0  0  0  0  0  0
    2.7932    1.9673    0.5273 C   0  0  0  0  0  0  0  0  0  0  0  0
    1.6122    2.6308    0.4945 N   0  0  0  0  0  0  0  0  0  0  0  0
    0.2973    2.0142    0.4475 C   0  0  0  0  0  0  0  0  0  0  0  0
   -0.7283    2.5222    1.4608 C   0  0  0  0  0  0  0  0  0  0  0  0
   -1.7855    3.5211    1.0384 C   0  0  0  0  0  0  0  0  0  0  0  0
   -2.5116    4.1205    2.0670 C   0  0  0  0  0  0  0  0  0  0  0  0
   -3.6425    4.8789    1.7897 C   0  0  0  0  0  0  0  0  0  0  0  0
   -4.0354    5.0758    0.4692 C   0  0  0  0  0  0  0  0  0  0  0  0
   -3.2875    4.5181   -0.5660 C   0  0  0  0  0  0  0  0  0  0  0  0
   -3.6693    4.7075   -1.8404 F   0  0  0  0  0  0  0  0  0  0  0  0
   -2.1704    3.7318   -0.2894 C   0  0  0  0  0  0  0  0  0  0  0  0
    2.9327    0.4804    0.9345 C   0  0  2  0  0  0  0  0  0  0  0  0
    2.5154   -0.5796   -0.1311 C   0  0  0  0  0  0  0  0  0  0  0  0
    3.5388   -1.1934   -0.8690 C   0  0  0  0  0  0  0  0  0  0  0  0
    3.2352   -2.1256   -1.8592 C   0  0  0  0  0  0  0  0  0  0  0  0
    1.9049   -2.4386   -2.1109 C   0  0  0  0  0  0  0  0  0  0  0  0
    0.8960   -1.8898   -1.4117 N   0  0  0  0  0  0  0  0  0  0  0  0
    1.2044   -0.9928   -0.4511 C   0  0  0  0  0  0  0  0  0  0  0  0
    2.7595    0.1664    2.4059 N   0  0  0  0  0  0  0  0  0  0  0  0
    3.7630   -0.3743    3.1810 C   0  0  0  0  0  0  0  0  0  0  0  0
    3.4582   -1.0637    4.1393 O   0  0  0  0  0  0  0  0  0  0  0  0
    5.1987   -0.2220    2.8153 C   0  0  0  0  0  0  0  0  0  0  0  0
    5.8162    0.8461    2.2011 C   0  0  0  0  0  0  0  0  0  0  0  0
    7.1754    0.4717    2.0353 C   0  0  0  0  0  0  0  0  0  0  0  0
    7.2768   -0.7595    2.6170 C   0  0  0  0  0  0  0  0  0  0  0  0
    6.1035   -1.2005    3.1840 O   0  0  0  0  0  0  0  0  0  0  0  0
    1.4229    0.1497    2.9613 C   0  0  0  0  0  0  0  0  0  0  0  0
    0.5285   -0.8652    2.6257 C   0  0  0  0  0  0  0  0  0  0  0  0
   -0.7868   -0.8417    3.0815 C   0  0  0  0  0  0  0  0  0  0  0  0
   -1.2171    0.1330    3.9891 C   0  0  0  0  0  0  0  0  0  0  0  0
   -2.6857    0.2409    4.4410 C   0  0  0  0  0  0  0  0  0  0  0  0
   -3.4885   -1.0754    4.5414 C   0  0  0  0  0  0  0  0  0  0  0  0
   -4.9715   -0.6762    4.4304 C   0  0  0  0  0  0  0  0  0  0  0  0
   -5.0098    0.6881    3.7198 C   0  0  0  0  0  0  0  0  0  0  0  0
   -3.5474    1.1114    3.5061 C   0  0  0  0  0  0  0  0  0  0  0  0
   -0.2730    1.0616    4.4463 C   0  0  0  0  0  0  0  0  0  0  0  0
    1.0300    1.0772    3.9326 C   0  0  0  0  0  0  0  0  0  0  0  0
    1.6469    3.6145    0.2718 H   0  0  0  0  0  0  0  0  0  0  0  0
   -0.0755    1.9784   -0.5774 H   0  0  0  0  0  0  0  0  0  0  0  0
    0.4562    1.0157    0.7863 H   0  0  0  0  0  0  0  0  0  0  0  0
   -1.2844    1.6344    1.7558 H   0  0  0  0  0  0  0  0  0  0  0  0
   -0.2124    2.8790    2.3524 H   0  0  0  0  0  0  0  0  0  0  0  0
   -2.2221    3.9507    3.1019 H   0  0  0  0  0  0  0  0  0  0  0  0
   -4.2268    5.2946    2.6063 H   0  0  0  0  0  0  0  0  0  0  0  0
   -4.9279    5.6549    0.2499 H   0  0  0  0  0  0  0  0  0  0  0  0
   -1.6375    3.2677   -1.1139 H   0  0  0  0  0  0  0  0  0  0  0  0
    3.9994    0.4119    0.7987 H   0  0  0  0  0  0  0  0  0  0  0  0
    4.5822   -0.9540   -0.6818 H   0  0  0  0  0  0  0  0  0  0  0  0
    4.0256   -2.6025   -2.4319 H   0  0  0  0  0  0  0  0  0  0  0  0
    1.6183   -3.1543   -2.8791 H   0  0  0  0  0  0  0  0  0  0  0  0
    0.3160   -0.6706    0.0682 H   0  0  0  0  0  0  0  0  0  0  0  0
    5.3841    1.7862    1.8905 H   0  0  0  0  0  0  0  0  0  0  0  0
    7.9560    1.0464    1.5463 H   0  0  0  0  0  0  0  0  0  0  0  0
    8.1117   -1.4418    2.7273 H   0  0  0  0  0  0  0  0  0  0  0  0
    0.8432   -1.6749    1.9766 H   0  0  0  0  0  0  0  0  0  0  0  0
   -1.4664   -1.5927    2.6963 H   0  0  0  0  0  0  0  0  0  0  0  0
   -2.7123    0.7056    5.4308 H   0  0  0  0  0  0  0  0  0  0  0  0
   -3.2697   -1.7488    3.7144 H   0  0  0  0  0  0  0  0  0  0  0  0
   -3.2830   -1.6015    5.4761 H   0  0  0  0  0  0  0  0  0  0  0  0
   -5.5345   -1.4259    3.8679 H   0  0  0  0  0  0  0  0  0  0  0  0
   -5.4161   -0.5867    5.4239 H   0  0  0  0  0  0  0  0  0  0  0  0
   -5.5321    0.6219    2.7613 H   0  0  0  0  0  0  0  0  0  0  0  0
   -5.5325    1.4190    4.3418 H   0  0  0  0  0  0  0  0  0  0  0  0
   -3.4211    2.1704    3.7289 H   0  0  0  0  0  0  0  0  0  0  0  0
   -3.2805    0.9319    2.4629 H   0  0  0  0  0  0  0  0  0  0  0  0
   -0.5626    1.8119    5.1790 H   0  0  0  0  0  0  0  0  0  0  0  0
    1.7342    1.8281    4.2840 H   0  0  0  0  0  0  0  0  0  0  0  0
  1  2  2  0  0  0  0
  2  3  1  0  0  0  0
  3  4  1  0  0  0  0
  3 39  1  0  0  0  0
  4  5  1  0  0  0  0
  4 40  1  0  0  0  0
  4 41  1  0  0  0  0
  5  6  1  0  0  0  0
  5 42  1  0  0  0  0
  5 43  1  0  0  0  0
  6  7  2  0  0  0  0
  7  8  1  0  0  0  0
  7 44  1  0  0  0  0
  8  9  2  0  0  0  0
  8 45  1  0  0  0  0
  9 10  1  0  0  0  0
  9 46  1  0  0  0  0
 10 11  1  0  0  0  0
 10 12  2  0  0  0  0
 12  6  1  0  0  0  0
 12 47  1  0  0  0  0
 13 20  1  0  0  0  0
 13 48  1  6  0  0  0
 13 14  1  0  0  0  0
 13  2  1  0  0  0  0
 14 15  2  0  0  0  0
 15 16  1  0  0  0  0
 15 49  1  0  0  0  0
 16 17  2  0  0  0  0
 16 50  1  0  0  0  0
 17 18  1  0  0  0  0
 17 51  1  0  0  0  0
 18 19  2  0  0  0  0
 19 14  1  0  0  0  0
 19 52  1  0  0  0  0
 20 21  1  0  0  0  0
 20 28  1  0  0  0  0
 21 22  2  0  0  0  0
 21 23  1  0  0  0  0
 23 24  2  0  0  0  0
 24 25  1  0  0  0  0
 24 53  1  0  0  0  0
 25 26  2  0  0  0  0
 25 54  1  0  0  0  0
 26 27  1  0  0  0  0
 26 55  1  0  0  0  0
 27 23  1  0  0  0  0
 28 29  2  0  0  0  0
 29 30  1  0  0  0  0
 29 56  1  0  0  0  0
 30 31  2  0  0  0  0
 30 57  1  0  0  0  0
 31 32  1  0  0  0  0
 31 37  1  0  0  0  0
 32 33  1  0  0  0  0
 32 58  1  0  0  0  0
 33 34  1  0  0  0  0
 33 59  1  0  0  0  0
 33 60  1  0  0  0  0
 34 35  1  0  0  0  0
 34 61  1  0  0  0  0
 34 62  1  0  0  0  0
 35 36  1  0  0  0  0
 35 63  1  0  0  0  0
 35 64  1  0  0  0  0
 36 32  1  0  0  0  0
 36 65  1  0  0  0  0
 36 66  1  0  0  0  0
 37 38  2  0  0  0  0
 37 67  1  0  0  0  0
 38 28  1  0  0  0  0
 38 68  1  0  0  0  0
M  END
$$$$
