
     RDKit          3D

 67 70  0  0  0  0  0  0  0  0999 V2000
   -0.0864   -0.9049    3.5037 C   0  0  0  0  0  0  0  0  0  0  0  0
   -1.2784   -1.6814    2.9280 C   0  0  0  0  0  0  0  0  0  0  0  0
   -2.6045   -1.1420    3.4806 C   0  0  0  0  0  0  0  0  0  0  0  0
   -1.2662   -1.6567    1.3998 C   0  0  0  0  0  0  0  0  0  0  0  0
   -1.3961   -0.4116    0.7503 C   0  0  0  0  0  0  0  0  0  0  0  0
   -1.3747   -0.3126   -0.6435 C   0  0  0  0  0  0  0  0  0  0  0  0
   -1.4512    0.9758   -1.2763 N   0  0  0  0  0  0  0  0  0  0  0  0
   -2.7041    1.3221   -1.8973 C   0  0  0  0  0  0  0  0  0  0  0  0
   -3.1492    0.6067   -2.8341 O   0  0  0  0  0  0  0  0  0  0  0  0
   -3.4852    2.4931   -1.4668 C   0  0  0  0  0  0  0  0  0  0  0  0
   -3.3924    3.1454   -0.2519 C   0  0  0  0  0  0  0  0  0  0  0  0
   -4.3184    4.1641   -0.3057 C   0  0  0  0  0  0  0  0  0  0  0  0
   -4.9232    4.0678   -1.5420 C   0  0  0  0  0  0  0  0  0  0  0  0
   -4.4084    3.0605   -2.2086 O   0  0  0  0  0  0  0  0  0  0  0  0
   -0.3912    1.9812   -1.0237 C   0  0  0  0  0  0  0  0  0  0  0  0
    0.9719    1.3242   -0.9795 C   0  0  0  0  0  0  0  0  0  0  0  0
    1.5404    0.9774   -2.0514 O   0  0  0  0  0  0  0  0  0  0  0  0
    1.5777    1.0140    0.2843 N   0  0  0  0  0  0  0  0  0  0  0  0
    2.7430    0.1402    0.4026 C   0  0  0  0  0  0  0  0  0  0  0  0
    2.3573   -1.3098    0.0943 C   0  0  0  0  0  0  0  0  0  0  0  0
    3.5245   -2.2324    0.3119 C   0  0  0  0  0  0  0  0  0  0  0  0
    3.7059   -2.8665    1.5525 C   0  0  0  0  0  0  0  0  0  0  0  0
    4.8053   -3.7050    1.7599 C   0  0  0  0  0  0  0  0  0  0  0  0
    5.7342   -3.9089    0.7357 C   0  0  0  0  0  0  0  0  0  0  0  0
    5.5671   -3.2717   -0.4975 C   0  0  0  0  0  0  0  0  0  0  0  0
    6.4726   -3.4650   -1.4880 F   0  0  0  0  0  0  0  0  0  0  0  0
    4.4682   -2.4325   -0.7091 C   0  0  0  0  0  0  0  0  0  0  0  0
   -0.3924    3.0959   -2.0583 C   0  0  0  0  0  0  0  0  0  0  0  0
   -0.3944    2.8143   -3.4359 C   0  0  0  0  0  0  0  0  0  0  0  0
   -0.3961    3.8556   -4.3646 C   0  0  0  0  0  0  0  0  0  0  0  0
   -0.3876    5.1752   -3.9119 C   0  0  0  0  0  0  0  0  0  0  0  0
   -0.3749    5.4373   -2.5786 N   0  0  0  0  0  0  0  0  0  0  0  0
   -0.3736    4.4411   -1.6530 C   0  0  0  0  0  0  0  0  0  0  0  0
   -1.2347   -1.4653   -1.4143 C   0  0  0  0  0  0  0  0  0  0  0  0
   -1.1024   -2.7089   -0.8004 C   0  0  0  0  0  0  0  0  0  0  0  0
   -1.1070   -2.8325    0.6052 C   0  0  0  0  0  0  0  0  0  0  0  0
   -0.9236   -4.2067    1.2239 C   0  0  0  0  0  0  0  0  0  0  0  0
   -2.0345   -4.5307    1.9821 F   0  0  0  0  0  0  0  0  0  0  0  0
   -0.7647   -5.1911    0.2631 F   0  0  0  0  0  0  0  0  0  0  0  0
    0.2051   -4.2119    2.0242 F   0  0  0  0  0  0  0  0  0  0  0  0
    0.8650   -1.3212    3.1112 H   0  0  0  0  0  0  0  0  0  0  0  0
   -0.0711   -0.9976    4.6107 H   0  0  0  0  0  0  0  0  0  0  0  0
   -0.1407    0.1731    3.2438 H   0  0  0  0  0  0  0  0  0  0  0  0
   -1.1878   -2.7124    3.3163 H   0  0  0  0  0  0  0  0  0  0  0  0
   -3.4560   -1.7025    3.0386 H   0  0  0  0  0  0  0  0  0  0  0  0
   -2.7294   -0.0620    3.2558 H   0  0  0  0  0  0  0  0  0  0  0  0
   -2.6383   -1.2743    4.5833 H   0  0  0  0  0  0  0  0  0  0  0  0
   -1.5053    0.4968    1.3280 H   0  0  0  0  0  0  0  0  0  0  0  0
   -2.7559    2.8992    0.5861 H   0  0  0  0  0  0  0  0  0  0  0  0
   -4.5366    4.8855    0.4702 H   0  0  0  0  0  0  0  0  0  0  0  0
   -5.7055    4.7133   -1.9179 H   0  0  0  0  0  0  0  0  0  0  0  0
   -0.5792    2.4265   -0.0244 H   0  0  0  0  0  0  0  0  0  0  0  0
    1.1626    1.4047    1.1599 H   0  0  0  0  0  0  0  0  0  0  0  0
    3.5432    0.4852   -0.2879 H   0  0  0  0  0  0  0  0  0  0  0  0
    3.1348    0.2005    1.4419 H   0  0  0  0  0  0  0  0  0  0  0  0
    1.5144   -1.6122    0.7487 H   0  0  0  0  0  0  0  0  0  0  0  0
    2.0037   -1.3971   -0.9555 H   0  0  0  0  0  0  0  0  0  0  0  0
    2.9972   -2.7121    2.3567 H   0  0  0  0  0  0  0  0  0  0  0  0
    4.9387   -4.1948    2.7158 H   0  0  0  0  0  0  0  0  0  0  0  0
    6.5849   -4.5577    0.8998 H   0  0  0  0  0  0  0  0  0  0  0  0
    4.3515   -1.9382   -1.6658 H   0  0  0  0  0  0  0  0  0  0  0  0
   -0.4034    1.7903   -3.7881 H   0  0  0  0  0  0  0  0  0  0  0  0
   -0.4040    3.6417   -5.4255 H   0  0  0  0  0  0  0  0  0  0  0  0
   -0.3890    5.9923   -4.6209 H   0  0  0  0  0  0  0  0  0  0  0  0
   -0.3636    4.6994   -0.6021 H   0  0  0  0  0  0  0  0  0  0  0  0
   -1.2046   -1.3960   -2.4944 H   0  0  0  0  0  0  0  0  0  0  0  0
   -0.9831   -3.5743   -1.4386 H   0  0  0  0  0  0  0  0  0  0  0  0
  1  2  1  0
  2  3  1  0
  2  4  1  0
  4  5  2  0
  5  6  1  0
  6  7  1  0
  7  8  1  0
  8  9  2  0
  8 10  1  0
 10 11  2  0
 11 12  1  0
 12 13  2  0
 13 14  1  0
  7 15  1  0
 15 16  1  0
 16 17  2  0
 16 18  1  0
 18 19  1  0
 19 20  1  0
 20 21  1  0
 21 22  2  0
 22 23  1  0
 23 24  2  0
 24 25  1  0
 25 26  1  0
 25 27  2  0
 15 28  1  0
 28 29  2  0
 29 30  1  0
 30 31  2  0
 31 32  1  0
 32 33  2  0
  6 34  2  0
 34 35  1  0
 35 36  2  0
 36 37  1  0
 37 38  1  0
 37 39  1  0
 37 40  1  0
 36  4  1  0
 14 10  1  0
 27 21  1  0
 33 28  1  0
  1 41  1  0
  1 42  1  0
  1 43  1  0
  2 44  1  0
  3 45  1  0
  3 46  1  0
  3 47  1  0
  5 48  1  0
 11 49  1  0
 12 50  1  0
 13 51  1  0
 15 52  1  0
 18 53  1  0
 19 54  1  0
 19 55  1  0
 20 56  1  0
 20 57  1  0
 22 58  1  0
 23 59  1  0
 24 60  1  0
 27 61  1  0
 29 62  1  0
 30 63  1  0
 31 64  1  0
 33 65  1  0
 34 66  1  0
 35 67  1  0
M  END
$$$$
