*****
 OpenBabel06282212483D

 56 59  0  0  1  0  0  0  0  0999 V2000
    4.2339   -9.2160    1.6770 N   0  0  0  0  0  0  0  0  0  0  0  0
    4.2732   -8.0796    1.6144 C   0  0  0  0  0  0  0  0  0  0  0  0
    4.3506   -6.6399    1.5502 C   0  0  0  0  0  0  0  0  0  0  0  0
    5.3817   -6.0298    0.8448 C   0  0  0  0  0  0  0  0  0  0  0  0
    5.5491   -4.6474    0.9092 C   0  0  0  0  0  0  0  0  0  0  0  0
    4.6025   -3.8241    1.5241 C   0  0  0  0  0  0  0  0  0  0  0  0
    4.8075   -2.3794    1.5817 N   0  0  0  0  0  0  0  0  0  0  0  0
    5.0195   -1.6991    2.7728 C   0  0  0  0  0  0  0  0  0  0  0  0
    5.2115   -0.4990    2.7836 O   0  0  0  0  0  0  0  0  0  0  0  0
    4.6638   -2.3666    4.0505 C   0  0  0  0  0  0  0  0  0  0  0  0
    5.0727   -3.5969    4.5054 C   0  0  0  0  0  0  0  0  0  0  0  0
    4.2952   -3.8475    5.6703 C   0  0  0  0  0  0  0  0  0  0  0  0
    3.5210   -2.7329    5.8327 C   0  0  0  0  0  0  0  0  0  0  0  0
    3.8062   -1.7351    4.9326 O   0  0  0  0  0  0  0  0  0  0  0  0
    4.7241   -1.5312    0.3067 C   0  0  2  0  0  0  0  0  0  0  0  0
    3.8281   -0.2855    0.4462 C   0  0  0  0  0  0  0  0  0  0  0  0
    4.2398    0.8065    0.1131 O   0  0  0  0  0  0  0  0  0  0  0  0
    2.4988   -0.4124    0.6933 N   0  0  0  0  0  0  0  0  0  0  0  0
    1.7856   -1.5847    1.2065 C   0  0  0  0  0  0  0  0  0  0  0  0
    1.4939   -1.3829    2.7061 C   0  0  0  0  0  0  0  0  0  0  0  0
    0.1563   -0.7365    3.0174 C   0  0  0  0  0  0  0  0  0  0  0  0
   -0.5320    0.0517    2.0881 C   0  0  0  0  0  0  0  0  0  0  0  0
   -1.7837    0.5729    2.4022 C   0  0  0  0  0  0  0  0  0  0  0  0
   -2.3487    0.3275    3.6514 C   0  0  0  0  0  0  0  0  0  0  0  0
   -1.6509   -0.4285    4.5897 C   0  0  0  0  0  0  0  0  0  0  0  0
   -2.1882   -0.6617    5.7993 F   0  0  0  0  0  0  0  0  0  0  0  0
   -0.4026   -0.9570    4.2769 C   0  0  0  0  0  0  0  0  0  0  0  0
    4.4366   -2.1614   -1.0922 C   0  0  0  0  0  0  0  0  0  0  0  0
    5.3026   -3.0847   -1.6893 C   0  0  0  0  0  0  0  0  0  0  0  0
    4.9675   -3.6827   -2.9025 C   0  0  0  0  0  0  0  0  0  0  0  0
    3.8310   -3.2529   -3.5768 C   0  0  0  0  0  0  0  0  0  0  0  0
    3.0779   -2.2338   -3.1267 N   0  0  0  0  0  0  0  0  0  0  0  0
    3.3923   -1.7030   -1.9256 C   0  0  0  0  0  0  0  0  0  0  0  0
    3.5484   -4.4607    2.2011 C   0  0  0  0  0  0  0  0  0  0  0  0
    3.4545   -5.8508    2.2629 C   0  0  0  0  0  0  0  0  0  0  0  0
    6.0930   -6.6342    0.2865 H   0  0  0  0  0  0  0  0  0  0  0  0
    6.4531   -4.2235    0.4968 H   0  0  0  0  0  0  0  0  0  0  0  0
    5.7771   -4.2800    4.0449 H   0  0  0  0  0  0  0  0  0  0  0  0
    4.2792   -4.7571    6.2611 H   0  0  0  0  0  0  0  0  0  0  0  0
    2.7269   -2.4924    6.5319 H   0  0  0  0  0  0  0  0  0  0  0  0
    5.7253   -1.0963    0.2261 H   0  0  0  0  0  0  0  0  0  0  0  0
    1.9462    0.4283    0.6288 H   0  0  0  0  0  0  0  0  0  0  0  0
    0.8542   -1.7285    0.6530 H   0  0  0  0  0  0  0  0  0  0  0  0
    2.3719   -2.4840    1.0447 H   0  0  0  0  0  0  0  0  0  0  0  0
    1.5145   -2.3477    3.2094 H   0  0  0  0  0  0  0  0  0  0  0  0
    2.2856   -0.7766    3.1505 H   0  0  0  0  0  0  0  0  0  0  0  0
   -0.1120    0.2602    1.1080 H   0  0  0  0  0  0  0  0  0  0  0  0
   -2.3199    1.1670    1.6669 H   0  0  0  0  0  0  0  0  0  0  0  0
   -3.3293    0.7274    3.8930 H   0  0  0  0  0  0  0  0  0  0  0  0
    0.1331   -1.5501    5.0154 H   0  0  0  0  0  0  0  0  0  0  0  0
    6.2549   -3.3282   -1.2460 H   0  0  0  0  0  0  0  0  0  0  0  0
    5.5930   -4.4627   -3.3276 H   0  0  0  0  0  0  0  0  0  0  0  0
    3.5308   -3.6832   -4.5300 H   0  0  0  0  0  0  0  0  0  0  0  0
    2.7771   -0.8410   -1.6890 H   0  0  0  0  0  0  0  0  0  0  0  0
    2.8447   -3.8874    2.7869 H   0  0  0  0  0  0  0  0  0  0  0  0
    2.6915   -6.3140    2.8863 H   0  0  0  0  0  0  0  0  0  0  0  0
  1  2  3  0  0  0  0
  2  3  1  0  0  0  0
  3  4  2  0  0  0  0
  4  5  1  0  0  0  0
  4 36  1  0  0  0  0
  5  6  2  0  0  0  0
  5 37  1  0  0  0  0
  6  7  1  0  0  0  0
  6 34  1  0  0  0  0
  7  8  1  0  0  0  0
  8  9  2  0  0  0  0
  8 10  1  0  0  0  0
 10 11  2  0  0  0  0
 11 12  1  0  0  0  0
 11 38  1  0  0  0  0
 12 13  2  0  0  0  0
 12 39  1  0  0  0  0
 13 14  1  0  0  0  0
 13 40  1  0  0  0  0
 14 10  1  0  0  0  0
 15 28  1  0  0  0  0
 15 41  1  6  0  0  0
 15 16  1  0  0  0  0
 15  7  1  0  0  0  0
 16 17  2  0  0  0  0
 16 18  1  0  0  0  0
 18 19  1  0  0  0  0
 18 42  1  0  0  0  0
 19 20  1  0  0  0  0
 19 43  1  0  0  0  0
 19 44  1  0  0  0  0
 20 21  1  0  0  0  0
 20 45  1  0  0  0  0
 20 46  1  0  0  0  0
 21 22  2  0  0  0  0
 22 23  1  0  0  0  0
 22 47  1  0  0  0  0
 23 24  2  0  0  0  0
 23 48  1  0  0  0  0
 24 25  1  0  0  0  0
 24 49  1  0  0  0  0
 25 26  1  0  0  0  0
 25 27  2  0  0  0  0
 27 21  1  0  0  0  0
 27 50  1  0  0  0  0
 28 29  2  0  0  0  0
 29 30  1  0  0  0  0
 29 51  1  0  0  0  0
 30 31  2  0  0  0  0
 30 52  1  0  0  0  0
 31 32  1  0  0  0  0
 31 53  1  0  0  0  0
 32 33  2  0  0  0  0
 33 28  1  0  0  0  0
 33 54  1  0  0  0  0
 34 35  2  0  0  0  0
 34 55  1  0  0  0  0
 35  3  1  0  0  0  0
 35 56  1  0  0  0  0
M  END
$$$$
