*****
 OpenBabel06282212483D

 60 63  0  0  1  0  0  0  0  0999 V2000
    5.1612    2.9370   12.2507 C   0  0  0  0  0  0  0  0  0  0  0  0
    5.5910    1.9990   11.1398 C   0  0  0  0  0  0  0  0  0  0  0  0
    6.2400    1.0092   11.4167 O   0  0  0  0  0  0  0  0  0  0  0  0
    5.1945    2.3006    9.7175 C   0  0  0  0  0  0  0  0  0  0  0  0
    4.3673    3.3781    9.3908 C   0  0  0  0  0  0  0  0  0  0  0  0
    3.9172    3.5571    8.0838 C   0  0  0  0  0  0  0  0  0  0  0  0
    4.3460    2.7259    7.0376 C   0  0  0  0  0  0  0  0  0  0  0  0
    3.8442    2.9030    5.6777 N   0  0  0  0  0  0  0  0  0  0  0  0
    3.5689    1.8794    4.7835 C   0  0  0  0  0  0  0  0  0  0  0  0
    3.5045    2.0949    3.5919 O   0  0  0  0  0  0  0  0  0  0  0  0
    3.6295    0.4708    5.2388 C   0  0  0  0  0  0  0  0  0  0  0  0
    3.1910   -0.0553    6.4285 C   0  0  0  0  0  0  0  0  0  0  0  0
    3.6275   -1.4092    6.4243 C   0  0  0  0  0  0  0  0  0  0  0  0
    4.2634   -1.5793    5.2259 C   0  0  0  0  0  0  0  0  0  0  0  0
    4.2057   -0.4755    4.4115 O   0  0  0  0  0  0  0  0  0  0  0  0
    3.7200    4.3252    5.1945 C   0  0  2  0  0  0  0  0  0  0  0  0
    2.2801    4.6618    4.7663 C   0  0  0  0  0  0  0  0  0  0  0  0
    1.8113    4.2700    3.7185 O   0  0  0  0  0  0  0  0  0  0  0  0
    1.4190    5.2615    5.6247 N   0  0  0  0  0  0  0  0  0  0  0  0
    1.7056    6.3475    6.5742 C   0  0  0  0  0  0  0  0  0  0  0  0
    1.5243    7.7543    5.9528 C   0  0  0  0  0  0  0  0  0  0  0  0
    0.0870    8.1756    5.6374 C   0  0  0  0  0  0  0  0  0  0  0  0
   -0.4151    9.3674    6.1732 C   0  0  0  0  0  0  0  0  0  0  0  0
   -1.6966    9.8118    5.8475 C   0  0  0  0  0  0  0  0  0  0  0  0
   -2.4976    9.0642    4.9886 C   0  0  0  0  0  0  0  0  0  0  0  0
   -2.0060    7.8795    4.4490 C   0  0  0  0  0  0  0  0  0  0  0  0
   -2.7739    7.1597    3.6129 F   0  0  0  0  0  0  0  0  0  0  0  0
   -0.7184    7.4433    4.7564 C   0  0  0  0  0  0  0  0  0  0  0  0
    4.7303    4.7906    4.1307 C   0  0  0  0  0  0  0  0  0  0  0  0
    4.7013    6.1241    3.7120 C   0  0  0  0  0  0  0  0  0  0  0  0
    5.5998    6.5640    2.7440 C   0  0  0  0  0  0  0  0  0  0  0  0
    6.5176    5.6602    2.2161 C   0  0  0  0  0  0  0  0  0  0  0  0
    6.5928    4.3769    2.6281 N   0  0  0  0  0  0  0  0  0  0  0  0
    5.7191    3.9642    3.5752 C   0  0  0  0  0  0  0  0  0  0  0  0
    5.2902    1.7380    7.3568 C   0  0  0  0  0  0  0  0  0  0  0  0
    5.6500    1.4843    8.6797 C   0  0  0  0  0  0  0  0  0  0  0  0
    5.6097    2.6373   13.2014 H   0  0  0  0  0  0  0  0  0  0  0  0
    4.0748    2.9287   12.3624 H   0  0  0  0  0  0  0  0  0  0  0  0
    5.4841    3.9569   12.0310 H   0  0  0  0  0  0  0  0  0  0  0  0
    4.0247    4.0684   10.1566 H   0  0  0  0  0  0  0  0  0  0  0  0
    3.2161    4.3622    7.9012 H   0  0  0  0  0  0  0  0  0  0  0  0
    2.6727    0.4511    7.2355 H   0  0  0  0  0  0  0  0  0  0  0  0
    3.5190   -2.1327    7.2247 H   0  0  0  0  0  0  0  0  0  0  0  0
    4.8041   -2.4173    4.8000 H   0  0  0  0  0  0  0  0  0  0  0  0
    3.9395    4.9741    6.0357 H   0  0  0  0  0  0  0  0  0  0  0  0
    0.4582    5.2537    5.3171 H   0  0  0  0  0  0  0  0  0  0  0  0
    1.0286    6.2444    7.4269 H   0  0  0  0  0  0  0  0  0  0  0  0
    2.7257    6.2724    6.9486 H   0  0  0  0  0  0  0  0  0  0  0  0
    1.9551    8.4742    6.6530 H   0  0  0  0  0  0  0  0  0  0  0  0
    2.1192    7.8282    5.0410 H   0  0  0  0  0  0  0  0  0  0  0  0
    0.1997    9.9724    6.8356 H   0  0  0  0  0  0  0  0  0  0  0  0
   -2.0692   10.7475    6.2574 H   0  0  0  0  0  0  0  0  0  0  0  0
   -3.4967    9.4089    4.7320 H   0  0  0  0  0  0  0  0  0  0  0  0
   -0.3509    6.5367    4.2863 H   0  0  0  0  0  0  0  0  0  0  0  0
    3.9821    6.8203    4.1316 H   0  0  0  0  0  0  0  0  0  0  0  0
    5.5835    7.5959    2.4025 H   0  0  0  0  0  0  0  0  0  0  0  0
    7.2273    5.9578    1.4465 H   0  0  0  0  0  0  0  0  0  0  0  0
    5.8321    2.9232    3.8665 H   0  0  0  0  0  0  0  0  0  0  0  0
    5.7079    1.0994    6.5827 H   0  0  0  0  0  0  0  0  0  0  0  0
    6.2995    0.6390    8.8972 H   0  0  0  0  0  0  0  0  0  0  0  0
  1  2  1  0  0  0  0
  1 37  1  0  0  0  0
  1 38  1  0  0  0  0
  1 39  1  0  0  0  0
  2  3  2  0  0  0  0
  2  4  1  0  0  0  0
  4  5  2  0  0  0  0
  5  6  1  0  0  0  0
  5 40  1  0  0  0  0
  6  7  2  0  0  0  0
  6 41  1  0  0  0  0
  7  8  1  0  0  0  0
  7 35  1  0  0  0  0
  8  9  1  0  0  0  0
  9 10  2  0  0  0  0
  9 11  1  0  0  0  0
 11 12  2  0  0  0  0
 12 13  1  0  0  0  0
 12 42  1  0  0  0  0
 13 14  2  0  0  0  0
 13 43  1  0  0  0  0
 14 15  1  0  0  0  0
 14 44  1  0  0  0  0
 15 11  1  0  0  0  0
 16 29  1  0  0  0  0
 16 45  1  1  0  0  0
 16 17  1  0  0  0  0
 16  8  1  0  0  0  0
 17 18  2  0  0  0  0
 17 19  1  0  0  0  0
 19 20  1  0  0  0  0
 19 46  1  0  0  0  0
 20 21  1  0  0  0  0
 20 47  1  0  0  0  0
 20 48  1  0  0  0  0
 21 22  1  0  0  0  0
 21 49  1  0  0  0  0
 21 50  1  0  0  0  0
 22 23  2  0  0  0  0
 23 24  1  0  0  0  0
 23 51  1  0  0  0  0
 24 25  2  0  0  0  0
 24 52  1  0  0  0  0
 25 26  1  0  0  0  0
 25 53  1  0  0  0  0
 26 27  1  0  0  0  0
 26 28  2  0  0  0  0
 28 22  1  0  0  0  0
 28 54  1  0  0  0  0
 29 30  2  0  0  0  0
 30 31  1  0  0  0  0
 30 55  1  0  0  0  0
 31 32  2  0  0  0  0
 31 56  1  0  0  0  0
 32 33  1  0  0  0  0
 32 57  1  0  0  0  0
 33 34  2  0  0  0  0
 34 29  1  0  0  0  0
 34 58  1  0  0  0  0
 35 36  2  0  0  0  0
 35 59  1  0  0  0  0
 36  4  1  0  0  0  0
 36 60  1  0  0  0  0
M  END
$$$$
