*****
 OpenBabel06282212483D

 65 68  0  0  1  0  0  0  0  0999 V2000
   -1.1643    1.2361    0.5345 C   0  0  0  0  0  0  0  0  0  0  0  0
   -0.6448   -0.0247   -0.2029 C   0  0  0  0  0  0  0  0  0  0  0  0
   -1.2603   -1.2609    0.5004 C   0  0  0  0  0  0  0  0  0  0  0  0
    0.8270   -0.0660   -0.0605 C   0  0  0  0  0  0  0  0  0  0  0  0
    1.9553   -0.0719    0.0677 N   0  0  0  0  0  0  0  0  0  0  0  0
   -0.9907   -0.0334   -1.7035 C   0  0  0  0  0  0  0  0  0  0  0  0
   -0.7518   -1.1747   -2.4681 C   0  0  0  0  0  0  0  0  0  0  0  0
   -0.9847   -1.1845   -3.8376 C   0  0  0  0  0  0  0  0  0  0  0  0
   -1.4616   -0.0584   -4.5259 C   0  0  0  0  0  0  0  0  0  0  0  0
   -1.6014   -0.0398   -5.9935 N   0  0  0  0  0  0  0  0  0  0  0  0
   -2.0264    1.0541   -6.7225 C   0  0  0  0  0  0  0  0  0  0  0  0
   -2.7827    0.9021   -7.6637 O   0  0  0  0  0  0  0  0  0  0  0  0
   -1.6395    2.4291   -6.3103 C   0  0  0  0  0  0  0  0  0  0  0  0
   -0.5788    2.8158   -5.5231 C   0  0  0  0  0  0  0  0  0  0  0  0
   -0.8435    4.1658   -5.1665 C   0  0  0  0  0  0  0  0  0  0  0  0
   -2.0039    4.4860   -5.8132 C   0  0  0  0  0  0  0  0  0  0  0  0
   -2.4695    3.4861   -6.6339 O   0  0  0  0  0  0  0  0  0  0  0  0
   -1.6358   -1.3646   -6.7176 C   0  0  1  0  0  0  0  0  0  0  0  0
   -0.2644   -2.0800   -6.7734 C   0  0  0  0  0  0  0  0  0  0  0  0
   -0.0415   -3.1560   -6.2572 O   0  0  0  0  0  0  0  0  0  0  0  0
    0.7719   -1.5704   -7.4753 N   0  0  0  0  0  0  0  0  0  0  0  0
    1.0213   -0.2055   -7.9407 C   0  0  0  0  0  0  0  0  0  0  0  0
    1.8730    0.6094   -6.9359 C   0  0  0  0  0  0  0  0  0  0  0  0
    3.3501    0.2230   -6.7691 C   0  0  0  0  0  0  0  0  0  0  0  0
    4.2929    1.2414   -6.5811 C   0  0  0  0  0  0  0  0  0  0  0  0
    5.6349    0.9426   -6.3424 C   0  0  0  0  0  0  0  0  0  0  0  0
    6.0581   -0.3824   -6.2921 C   0  0  0  0  0  0  0  0  0  0  0  0
    5.1322   -1.4027   -6.4773 C   0  0  0  0  0  0  0  0  0  0  0  0
    5.5315   -2.6852   -6.4206 F   0  0  0  0  0  0  0  0  0  0  0  0
    3.7900   -1.1072   -6.7033 C   0  0  0  0  0  0  0  0  0  0  0  0
   -2.8187   -2.2587   -6.2605 C   0  0  0  0  0  0  0  0  0  0  0  0
   -2.8395   -3.6488   -6.4519 C   0  0  0  0  0  0  0  0  0  0  0  0
   -3.8785   -4.4071   -5.9201 C   0  0  0  0  0  0  0  0  0  0  0  0
   -4.9182   -3.7601   -5.2607 C   0  0  0  0  0  0  0  0  0  0  0  0
   -4.9754   -2.4171   -5.1425 N   0  0  0  0  0  0  0  0  0  0  0  0
   -3.9479   -1.6946   -5.6452 C   0  0  0  0  0  0  0  0  0  0  0  0
   -1.8897    1.0002   -3.7075 C   0  0  0  0  0  0  0  0  0  0  0  0
   -1.5876    1.0518   -2.3502 C   0  0  0  0  0  0  0  0  0  0  0  0
   -2.2431    1.3455    0.3988 H   0  0  0  0  0  0  0  0  0  0  0  0
   -0.9674    1.1738    1.6074 H   0  0  0  0  0  0  0  0  0  0  0  0
   -0.6744    2.1400    0.1619 H   0  0  0  0  0  0  0  0  0  0  0  0
   -2.3297   -1.3272    0.2864 H   0  0  0  0  0  0  0  0  0  0  0  0
   -0.7903   -2.1899    0.1691 H   0  0  0  0  0  0  0  0  0  0  0  0
   -1.1317   -1.2020    1.5837 H   0  0  0  0  0  0  0  0  0  0  0  0
   -0.3623   -2.0788   -2.0085 H   0  0  0  0  0  0  0  0  0  0  0  0
   -0.8033   -2.1229   -4.3278 H   0  0  0  0  0  0  0  0  0  0  0  0
    0.2134    2.2032   -5.1129 H   0  0  0  0  0  0  0  0  0  0  0  0
   -0.2903    4.7704   -4.4553 H   0  0  0  0  0  0  0  0  0  0  0  0
   -2.6358    5.3666   -5.7772 H   0  0  0  0  0  0  0  0  0  0  0  0
   -1.8115   -1.1751   -7.7794 H   0  0  0  0  0  0  0  0  0  0  0  0
    1.5896   -2.1590   -7.4939 H   0  0  0  0  0  0  0  0  0  0  0  0
    1.5533   -0.2623   -8.8941 H   0  0  0  0  0  0  0  0  0  0  0  0
    0.0728    0.3018   -8.1215 H   0  0  0  0  0  0  0  0  0  0  0  0
    1.8228    1.6548   -7.2514 H   0  0  0  0  0  0  0  0  0  0  0  0
    1.4002    0.5566   -5.9549 H   0  0  0  0  0  0  0  0  0  0  0  0
    3.9821    2.2834   -6.5989 H   0  0  0  0  0  0  0  0  0  0  0  0
    6.3521    1.7442   -6.1842 H   0  0  0  0  0  0  0  0  0  0  0  0
    7.1017   -0.6199   -6.0993 H   0  0  0  0  0  0  0  0  0  0  0  0
    3.1063   -1.9390   -6.8050 H   0  0  0  0  0  0  0  0  0  0  0  0
   -2.0518   -4.1641   -6.9915 H   0  0  0  0  0  0  0  0  0  0  0  0
   -3.8733   -5.4904   -6.0130 H   0  0  0  0  0  0  0  0  0  0  0  0
   -5.7443   -4.3174   -4.8230 H   0  0  0  0  0  0  0  0  0  0  0  0
   -4.0549   -0.6192   -5.5232 H   0  0  0  0  0  0  0  0  0  0  0  0
   -2.4467    1.8398   -4.1037 H   0  0  0  0  0  0  0  0  0  0  0  0
   -1.8383    1.9620   -1.8153 H   0  0  0  0  0  0  0  0  0  0  0  0
  1  2  1  0  0  0  0
  1 39  1  0  0  0  0
  1 40  1  0  0  0  0
  1 41  1  0  0  0  0
  2  3  1  0  0  0  0
  2  4  1  0  0  0  0
  2  6  1  0  0  0  0
  3 42  1  0  0  0  0
  3 43  1  0  0  0  0
  3 44  1  0  0  0  0
  4  5  3  0  0  0  0
  6  7  2  0  0  0  0
  7  8  1  0  0  0  0
  7 45  1  0  0  0  0
  8  9  2  0  0  0  0
  8 46  1  0  0  0  0
  9 10  1  0  0  0  0
  9 37  1  0  0  0  0
 10 11  1  0  0  0  0
 10 18  1  0  0  0  0
 11 12  2  0  0  0  0
 11 13  1  0  0  0  0
 13 14  2  0  0  0  0
 14 15  1  0  0  0  0
 14 47  1  0  0  0  0
 15 16  2  0  0  0  0
 15 48  1  0  0  0  0
 16 17  1  0  0  0  0
 16 49  1  0  0  0  0
 17 13  1  0  0  0  0
 18 19  1  0  0  0  0
 18 31  1  0  0  0  0
 18 50  1  6  0  0  0
 19 20  2  0  0  0  0
 19 21  1  0  0  0  0
 21 22  1  0  0  0  0
 21 51  1  0  0  0  0
 22 23  1  0  0  0  0
 22 52  1  0  0  0  0
 22 53  1  0  0  0  0
 23 24  1  0  0  0  0
 23 54  1  0  0  0  0
 23 55  1  0  0  0  0
 24 25  2  0  0  0  0
 25 26  1  0  0  0  0
 25 56  1  0  0  0  0
 26 27  2  0  0  0  0
 26 57  1  0  0  0  0
 27 28  1  0  0  0  0
 27 58  1  0  0  0  0
 28 29  1  0  0  0  0
 28 30  2  0  0  0  0
 30 24  1  0  0  0  0
 30 59  1  0  0  0  0
 31 32  2  0  0  0  0
 32 33  1  0  0  0  0
 32 60  1  0  0  0  0
 33 34  2  0  0  0  0
 33 61  1  0  0  0  0
 34 35  1  0  0  0  0
 34 62  1  0  0  0  0
 35 36  2  0  0  0  0
 36 31  1  0  0  0  0
 36 63  1  0  0  0  0
 37 38  2  0  0  0  0
 37 64  1  0  0  0  0
 38  6  1  0  0  0  0
 38 65  1  0  0  0  0
M  END
$$$$
