*****
 OpenBabel06282212483D

 65 69  0  0  1  0  0  0  0  0999 V2000
   -1.2912   -5.4694  -11.2116 C   0  0  0  0  0  0  0  0  0  0  0  0
   -2.3617   -4.4023  -11.0037 C   0  0  0  0  0  0  0  0  0  0  0  0
   -2.1957   -3.8802   -9.6094 C   0  0  0  0  0  0  0  0  0  0  0  0
   -3.0447   -4.2906   -8.5849 C   0  0  0  0  0  0  0  0  0  0  0  0
   -2.8692   -3.8210   -7.2835 C   0  0  0  0  0  0  0  0  0  0  0  0
   -1.7826   -2.9934   -6.9375 C   0  0  0  0  0  0  0  0  0  0  0  0
   -1.5673   -2.5215   -5.5655 N   0  0  0  0  0  0  0  0  0  0  0  0
   -0.9393   -1.3374   -5.2043 C   0  0  0  0  0  0  0  0  0  0  0  0
   -0.5010   -1.1805   -4.0852 O   0  0  0  0  0  0  0  0  0  0  0  0
   -0.6568   -0.2755   -6.1970 C   0  0  0  0  0  0  0  0  0  0  0  0
   -1.3977    0.0979   -7.2907 C   0  0  0  0  0  0  0  0  0  0  0  0
   -0.6132    1.0812   -7.9562 C   0  0  0  0  0  0  0  0  0  0  0  0
    0.5073    1.2322   -7.1877 C   0  0  0  0  0  0  0  0  0  0  0  0
    0.4874    0.4859   -6.0372 O   0  0  0  0  0  0  0  0  0  0  0  0
   -1.9565   -3.4573   -4.4440 C   0  0  2  0  0  0  0  0  0  0  0  0
   -2.7579   -2.7483   -3.3302 C   0  0  0  0  0  0  0  0  0  0  0  0
   -3.3842   -1.7400   -3.5923 O   0  0  0  0  0  0  0  0  0  0  0  0
   -3.0561   -3.3117   -2.1306 N   0  0  0  0  0  0  0  0  0  0  0  0
   -2.6052   -4.5551   -1.4863 C   0  0  0  0  0  0  0  0  0  0  0  0
   -1.4588   -4.3320   -0.4712 C   0  0  0  0  0  0  0  0  0  0  0  0
   -1.8399   -3.7012    0.8690 C   0  0  0  0  0  0  0  0  0  0  0  0
   -0.9057   -3.7457    1.9089 C   0  0  0  0  0  0  0  0  0  0  0  0
   -1.1870   -3.1679    3.1463 C   0  0  0  0  0  0  0  0  0  0  0  0
   -2.4079   -2.5331    3.3579 C   0  0  0  0  0  0  0  0  0  0  0  0
   -3.3436   -2.4834    2.3293 C   0  0  0  0  0  0  0  0  0  0  0  0
   -4.5238   -1.8715    2.5285 F   0  0  0  0  0  0  0  0  0  0  0  0
   -3.0670   -3.0627    1.0933 C   0  0  0  0  0  0  0  0  0  0  0  0
   -0.8205   -4.4025   -4.0136 C   0  0  0  0  0  0  0  0  0  0  0  0
    0.3194   -3.9973   -3.3085 C   0  0  0  0  0  0  0  0  0  0  0  0
    1.2296   -4.9520   -2.8659 C   0  0  0  0  0  0  0  0  0  0  0  0
    0.9859   -6.2952   -3.1345 C   0  0  0  0  0  0  0  0  0  0  0  0
   -0.0876   -6.7116   -3.8401 N   0  0  0  0  0  0  0  0  0  0  0  0
   -0.9542   -5.7714   -4.2812 C   0  0  0  0  0  0  0  0  0  0  0  0
   -0.8793   -2.6837   -7.9689 C   0  0  0  0  0  0  0  0  0  0  0  0
   -1.1208   -3.0549   -9.2904 C   0  0  0  0  0  0  0  0  0  0  0  0
   -3.7070   -4.5468  -11.6647 C   0  0  0  0  0  0  0  0  0  0  0  0
   -2.7419   -3.5120  -12.1558 C   0  0  0  0  0  0  0  0  0  0  0  0
   -0.8549   -5.8032  -10.2660 H   0  0  0  0  0  0  0  0  0  0  0  0
   -0.4823   -5.0770  -11.8320 H   0  0  0  0  0  0  0  0  0  0  0  0
   -1.7072   -6.3475  -11.7092 H   0  0  0  0  0  0  0  0  0  0  0  0
   -3.8564   -4.9825   -8.7994 H   0  0  0  0  0  0  0  0  0  0  0  0
   -3.6043   -4.1393   -6.5533 H   0  0  0  0  0  0  0  0  0  0  0  0
   -2.3541   -0.2936   -7.6198 H   0  0  0  0  0  0  0  0  0  0  0  0
   -0.8417    1.5744   -8.8942 H   0  0  0  0  0  0  0  0  0  0  0  0
    1.4048    1.8277   -7.3129 H   0  0  0  0  0  0  0  0  0  0  0  0
   -2.7305   -4.1242   -4.8069 H   0  0  0  0  0  0  0  0  0  0  0  0
   -3.6726   -2.7602   -1.5538 H   0  0  0  0  0  0  0  0  0  0  0  0
   -3.4563   -4.9895   -0.9554 H   0  0  0  0  0  0  0  0  0  0  0  0
   -2.3093   -5.2876   -2.2316 H   0  0  0  0  0  0  0  0  0  0  0  0
   -0.9972   -5.3028   -0.2734 H   0  0  0  0  0  0  0  0  0  0  0  0
   -0.6867   -3.7097   -0.9235 H   0  0  0  0  0  0  0  0  0  0  0  0
    0.0556   -4.2316    1.7558 H   0  0  0  0  0  0  0  0  0  0  0  0
   -0.4516   -3.2091    3.9460 H   0  0  0  0  0  0  0  0  0  0  0  0
   -2.6293   -2.0779    4.3201 H   0  0  0  0  0  0  0  0  0  0  0  0
   -3.8230   -3.0023    0.3181 H   0  0  0  0  0  0  0  0  0  0  0  0
    0.4976   -2.9662   -3.0395 H   0  0  0  0  0  0  0  0  0  0  0  0
    2.1041   -4.6523   -2.2935 H   0  0  0  0  0  0  0  0  0  0  0  0
    1.6561   -7.0731   -2.7738 H   0  0  0  0  0  0  0  0  0  0  0  0
   -1.8206   -6.1591   -4.8136 H   0  0  0  0  0  0  0  0  0  0  0  0
    0.0205   -2.1109   -7.7681 H   0  0  0  0  0  0  0  0  0  0  0  0
   -0.4406   -2.7278  -10.0737 H   0  0  0  0  0  0  0  0  0  0  0  0
   -3.8800   -5.4137  -12.2970 H   0  0  0  0  0  0  0  0  0  0  0  0
   -4.5883   -4.1931  -11.1376 H   0  0  0  0  0  0  0  0  0  0  0  0
   -2.9782   -2.4717  -11.9518 H   0  0  0  0  0  0  0  0  0  0  0  0
   -2.2692   -3.6864  -13.1189 H   0  0  0  0  0  0  0  0  0  0  0  0
  1  2  1  0  0  0  0
  1 38  1  0  0  0  0
  1 39  1  0  0  0  0
  1 40  1  0  0  0  0
  2  3  1  0  0  0  0
  2 36  1  0  0  0  0
  3  4  2  0  0  0  0
  4  5  1  0  0  0  0
  4 41  1  0  0  0  0
  5  6  2  0  0  0  0
  5 42  1  0  0  0  0
  6  7  1  0  0  0  0
  6 34  1  0  0  0  0
  7  8  1  0  0  0  0
  8  9  2  0  0  0  0
  8 10  1  0  0  0  0
 10 11  2  0  0  0  0
 11 12  1  0  0  0  0
 11 43  1  0  0  0  0
 12 13  2  0  0  0  0
 12 44  1  0  0  0  0
 13 14  1  0  0  0  0
 13 45  1  0  0  0  0
 14 10  1  0  0  0  0
 15 28  1  0  0  0  0
 15 46  1  6  0  0  0
 15 16  1  0  0  0  0
 15  7  1  0  0  0  0
 16 17  2  0  0  0  0
 16 18  1  0  0  0  0
 18 19  1  0  0  0  0
 18 47  1  0  0  0  0
 19 20  1  0  0  0  0
 19 48  1  0  0  0  0
 19 49  1  0  0  0  0
 20 21  1  0  0  0  0
 20 50  1  0  0  0  0
 20 51  1  0  0  0  0
 21 22  2  0  0  0  0
 22 23  1  0  0  0  0
 22 52  1  0  0  0  0
 23 24  2  0  0  0  0
 23 53  1  0  0  0  0
 24 25  1  0  0  0  0
 24 54  1  0  0  0  0
 25 26  1  0  0  0  0
 25 27  2  0  0  0  0
 27 21  1  0  0  0  0
 27 55  1  0  0  0  0
 28 29  2  0  0  0  0
 29 30  1  0  0  0  0
 29 56  1  0  0  0  0
 30 31  2  0  0  0  0
 30 57  1  0  0  0  0
 31 32  1  0  0  0  0
 31 58  1  0  0  0  0
 32 33  2  0  0  0  0
 33 28  1  0  0  0  0
 33 59  1  0  0  0  0
 34 35  2  0  0  0  0
 34 60  1  0  0  0  0
 35  3  1  0  0  0  0
 35 61  1  0  0  0  0
 36 37  1  0  0  0  0
 36 62  1  0  0  0  0
 36 63  1  0  0  0  0
 37  2  1  0  0  0  0
 37 64  1  0  0  0  0
 37 65  1  0  0  0  0
M  END
$$$$
