
     RDKit          3D

 69 72  0  0  0  0  0  0  0  0999 V2000
   -5.2181   -3.0285    1.4889 C   0  0  0  0  0  0  0  0  0  0  0  0
   -3.8193   -3.4066    0.9561 C   0  0  0  0  0  0  0  0  0  0  0  0
   -4.0080   -4.4750   -0.1478 C   0  0  0  0  0  0  0  0  0  0  0  0
   -2.9938   -4.0497    2.0921 C   0  0  0  0  0  0  0  0  0  0  0  0
   -3.1006   -2.1379    0.4531 C   0  0  0  0  0  0  0  0  0  0  0  0
   -2.8396   -1.0805    1.3532 C   0  0  0  0  0  0  0  0  0  0  0  0
   -2.1803    0.0773    0.9355 C   0  0  0  0  0  0  0  0  0  0  0  0
   -1.7348    0.2030   -0.3839 C   0  0  0  0  0  0  0  0  0  0  0  0
   -1.0817    1.4154   -0.8107 N   0  0  0  0  0  0  0  0  0  0  0  0
   -1.9213    2.5757   -0.9930 C   0  0  0  0  0  0  0  0  0  0  0  0
   -3.0961    2.4233   -1.4280 O   0  0  0  0  0  0  0  0  0  0  0  0
   -1.4492    3.9394   -0.6732 C   0  0  0  0  0  0  0  0  0  0  0  0
   -2.0026    5.0595   -1.3148 C   0  0  0  0  0  0  0  0  0  0  0  0
   -1.5514    6.3373   -0.9766 C   0  0  0  0  0  0  0  0  0  0  0  0
   -0.5658    6.4912   -0.0007 C   0  0  0  0  0  0  0  0  0  0  0  0
   -0.0477    5.3583    0.6285 C   0  0  0  0  0  0  0  0  0  0  0  0
   -0.5004    4.1234    0.2852 N   0  0  0  0  0  0  0  0  0  0  0  0
    0.3386    1.4520   -1.2477 C   0  0  0  0  0  0  0  0  0  0  0  0
    0.8039    0.1642   -1.8923 C   0  0  0  0  0  0  0  0  0  0  0  0
    0.9490    0.1253   -3.1447 O   0  0  0  0  0  0  0  0  0  0  0  0
    1.0622   -1.0115   -1.1072 N   0  0  0  0  0  0  0  0  0  0  0  0
    1.5870   -2.2461   -1.6877 C   0  0  0  0  0  0  0  0  0  0  0  0
    3.0721   -2.1034   -2.0397 C   0  0  0  0  0  0  0  0  0  0  0  0
    3.8896   -1.7153   -0.8342 C   0  0  0  0  0  0  0  0  0  0  0  0
    4.2988   -0.3836   -0.6512 C   0  0  0  0  0  0  0  0  0  0  0  0
    5.0315   -0.0220    0.4832 C   0  0  0  0  0  0  0  0  0  0  0  0
    5.3478   -0.9812    1.4486 C   0  0  0  0  0  0  0  0  0  0  0  0
    4.9360   -2.3062    1.2791 C   0  0  0  0  0  0  0  0  0  0  0  0
    5.2403   -3.2355    2.2182 F   0  0  0  0  0  0  0  0  0  0  0  0
    4.2088   -2.6737    0.1422 C   0  0  0  0  0  0  0  0  0  0  0  0
    1.2894    1.8632   -0.1362 C   0  0  0  0  0  0  0  0  0  0  0  0
    2.3574    2.7313   -0.4243 C   0  0  0  0  0  0  0  0  0  0  0  0
    3.2396    3.1233    0.5827 C   0  0  0  0  0  0  0  0  0  0  0  0
    3.0637    2.6301    1.8745 C   0  0  0  0  0  0  0  0  0  0  0  0
    2.0447    1.7730    2.1412 N   0  0  0  0  0  0  0  0  0  0  0  0
    1.1672    1.3807    1.1796 C   0  0  0  0  0  0  0  0  0  0  0  0
   -2.0391   -0.8077   -1.3043 C   0  0  0  0  0  0  0  0  0  0  0  0
   -2.6975   -1.9690   -0.8927 C   0  0  0  0  0  0  0  0  0  0  0  0
   -5.8116   -2.5270    0.6941 H   0  0  0  0  0  0  0  0  0  0  0  0
   -5.1514   -2.3425    2.3591 H   0  0  0  0  0  0  0  0  0  0  0  0
   -5.7718   -3.9339    1.8201 H   0  0  0  0  0  0  0  0  0  0  0  0
   -4.6399   -4.0842   -0.9744 H   0  0  0  0  0  0  0  0  0  0  0  0
   -3.0264   -4.7992   -0.5565 H   0  0  0  0  0  0  0  0  0  0  0  0
   -4.5152   -5.3770    0.2590 H   0  0  0  0  0  0  0  0  0  0  0  0
   -3.4691   -4.9923    2.4406 H   0  0  0  0  0  0  0  0  0  0  0  0
   -2.9123   -3.3762    2.9706 H   0  0  0  0  0  0  0  0  0  0  0  0
   -1.9673   -4.2864    1.7372 H   0  0  0  0  0  0  0  0  0  0  0  0
   -3.1487   -1.1425    2.3876 H   0  0  0  0  0  0  0  0  0  0  0  0
   -2.0101    0.8780    1.6442 H   0  0  0  0  0  0  0  0  0  0  0  0
   -2.7663    4.9467   -2.0743 H   0  0  0  0  0  0  0  0  0  0  0  0
   -1.9656    7.2070   -1.4702 H   0  0  0  0  0  0  0  0  0  0  0  0
   -0.2098    7.4774    0.2676 H   0  0  0  0  0  0  0  0  0  0  0  0
    0.7138    5.4589    1.3903 H   0  0  0  0  0  0  0  0  0  0  0  0
    0.4102    2.2299   -2.0429 H   0  0  0  0  0  0  0  0  0  0  0  0
    0.8176   -1.0210   -0.0934 H   0  0  0  0  0  0  0  0  0  0  0  0
    1.4615   -3.0767   -0.9591 H   0  0  0  0  0  0  0  0  0  0  0  0
    1.0058   -2.5113   -2.5971 H   0  0  0  0  0  0  0  0  0  0  0  0
    3.4425   -3.0724   -2.4389 H   0  0  0  0  0  0  0  0  0  0  0  0
    3.1948   -1.3541   -2.8513 H   0  0  0  0  0  0  0  0  0  0  0  0
    4.0507    0.3732   -1.3849 H   0  0  0  0  0  0  0  0  0  0  0  0
    5.3529    1.0026    0.6154 H   0  0  0  0  0  0  0  0  0  0  0  0
    5.9113   -0.6965    2.3277 H   0  0  0  0  0  0  0  0  0  0  0  0
    3.8899   -3.7019    0.0230 H   0  0  0  0  0  0  0  0  0  0  0  0
    2.5033    3.1114   -1.4276 H   0  0  0  0  0  0  0  0  0  0  0  0
    4.0563    3.7981    0.3618 H   0  0  0  0  0  0  0  0  0  0  0  0
    3.7434    2.9210    2.6642 H   0  0  0  0  0  0  0  0  0  0  0  0
    0.3846    0.6922    1.4484 H   0  0  0  0  0  0  0  0  0  0  0  0
   -1.7673   -0.6955   -2.3460 H   0  0  0  0  0  0  0  0  0  0  0  0
   -2.8857   -2.7195   -1.6454 H   0  0  0  0  0  0  0  0  0  0  0  0
  1  2  1  0
  2  3  1  0
  2  4  1  0
  2  5  1  0
  5  6  2  0
  6  7  1  0
  7  8  2  0
  8  9  1  0
  9 10  1  0
 10 11  2  0
 10 12  1  0
 12 13  2  0
 13 14  1  0
 14 15  2  0
 15 16  1  0
 16 17  2  0
  9 18  1  0
 18 19  1  0
 19 20  2  0
 19 21  1  0
 21 22  1  0
 22 23  1  0
 23 24  1  0
 24 25  2  0
 25 26  1  0
 26 27  2  0
 27 28  1  0
 28 29  1  0
 28 30  2  0
 18 31  1  0
 31 32  2  0
 32 33  1  0
 33 34  2  0
 34 35  1  0
 35 36  2  0
  8 37  1  0
 37 38  2  0
 38  5  1  0
 17 12  1  0
 30 24  1  0
 36 31  1  0
  1 39  1  0
  1 40  1  0
  1 41  1  0
  3 42  1  0
  3 43  1  0
  3 44  1  0
  4 45  1  0
  4 46  1  0
  4 47  1  0
  6 48  1  0
  7 49  1  0
 13 50  1  0
 14 51  1  0
 15 52  1  0
 16 53  1  0
 18 54  1  0
 21 55  1  0
 22 56  1  0
 22 57  1  0
 23 58  1  0
 23 59  1  0
 25 60  1  0
 26 61  1  0
 27 62  1  0
 30 63  1  0
 32 64  1  0
 33 65  1  0
 34 66  1  0
 36 67  1  0
 37 68  1  0
 38 69  1  0
M  END
$$$$
