
     RDKit          3D

 65 69  0  0  0  0  0  0  0  0999 V2000
    4.0740    1.7366    3.7617 C   0  0  0  0  0  0  0  0  0  0  0  0
    2.5648    1.6672    3.5227 C   0  0  0  0  0  0  0  0  0  0  0  0
    2.0733    1.0541    2.2388 C   0  0  0  0  0  0  0  0  0  0  0  0
    1.9021    1.8477    1.0949 C   0  0  0  0  0  0  0  0  0  0  0  0
    1.4628    1.2741   -0.1016 C   0  0  0  0  0  0  0  0  0  0  0  0
    1.2132   -0.1069   -0.1771 C   0  0  0  0  0  0  0  0  0  0  0  0
    0.8095   -0.7154   -1.4188 N   0  0  0  0  0  0  0  0  0  0  0  0
    1.8442   -1.4214   -2.1219 C   0  0  0  0  0  0  0  0  0  0  0  0
    2.6693   -0.7768   -2.8227 O   0  0  0  0  0  0  0  0  0  0  0  0
    1.9491   -2.8854   -2.0477 C   0  0  0  0  0  0  0  0  0  0  0  0
    1.1153   -3.7340   -1.3457 C   0  0  0  0  0  0  0  0  0  0  0  0
    1.5950   -5.0041   -1.5798 C   0  0  0  0  0  0  0  0  0  0  0  0
    2.6891   -4.8540   -2.4069 C   0  0  0  0  0  0  0  0  0  0  0  0
    2.8745   -3.5805   -2.6681 O   0  0  0  0  0  0  0  0  0  0  0  0
   -0.3260   -0.1491   -2.1816 C   0  0  0  0  0  0  0  0  0  0  0  0
   -1.5426    0.0776   -1.3104 C   0  0  0  0  0  0  0  0  0  0  0  0
   -2.2872    1.0657   -1.5541 O   0  0  0  0  0  0  0  0  0  0  0  0
   -1.8991   -0.8517   -0.2729 N   0  0  0  0  0  0  0  0  0  0  0  0
   -3.1914   -0.8190    0.4115 C   0  0  0  0  0  0  0  0  0  0  0  0
   -3.1042   -0.0313    1.7229 C   0  0  0  0  0  0  0  0  0  0  0  0
   -2.8968    1.4400    1.4791 C   0  0  0  0  0  0  0  0  0  0  0  0
   -1.6258    2.0139    1.6391 C   0  0  0  0  0  0  0  0  0  0  0  0
   -1.4249    3.3698    1.3633 C   0  0  0  0  0  0  0  0  0  0  0  0
   -2.4917    4.1623    0.9320 C   0  0  0  0  0  0  0  0  0  0  0  0
   -3.7619    3.6002    0.7752 C   0  0  0  0  0  0  0  0  0  0  0  0
   -4.7958    4.3695    0.3540 F   0  0  0  0  0  0  0  0  0  0  0  0
   -3.9653    2.2432    1.0460 C   0  0  0  0  0  0  0  0  0  0  0  0
   -0.7026   -1.0150   -3.3751 C   0  0  0  0  0  0  0  0  0  0  0  0
   -0.3869   -0.5941   -4.6778 C   0  0  0  0  0  0  0  0  0  0  0  0
   -0.6952   -1.4027   -5.7726 C   0  0  0  0  0  0  0  0  0  0  0  0
   -1.3132   -2.6348   -5.5602 C   0  0  0  0  0  0  0  0  0  0  0  0
   -1.6072   -3.0391   -4.2971 N   0  0  0  0  0  0  0  0  0  0  0  0
   -1.3189   -2.2701   -3.2136 C   0  0  0  0  0  0  0  0  0  0  0  0
    1.4237   -0.9037    0.9579 C   0  0  0  0  0  0  0  0  0  0  0  0
    1.8493   -0.3280    2.1574 C   0  0  0  0  0  0  0  0  0  0  0  0
    1.6909    1.4395    4.7514 C   0  0  0  0  0  0  0  0  0  0  0  0
    1.7309    2.8109    4.0898 C   0  0  0  0  0  0  0  0  0  0  0  0
    4.5481    2.3334    2.9547 H   0  0  0  0  0  0  0  0  0  0  0  0
    4.4978    0.7107    3.7456 H   0  0  0  0  0  0  0  0  0  0  0  0
    4.3185    2.2054    4.7391 H   0  0  0  0  0  0  0  0  0  0  0  0
    2.1025    2.9112    1.1326 H   0  0  0  0  0  0  0  0  0  0  0  0
    1.3406    1.9041   -0.9721 H   0  0  0  0  0  0  0  0  0  0  0  0
    0.2595   -3.4691   -0.7411 H   0  0  0  0  0  0  0  0  0  0  0  0
    1.1936   -5.9316   -1.1942 H   0  0  0  0  0  0  0  0  0  0  0  0
    3.3090   -5.6531   -2.7906 H   0  0  0  0  0  0  0  0  0  0  0  0
   -0.0096    0.8471   -2.5626 H   0  0  0  0  0  0  0  0  0  0  0  0
   -1.2515   -1.6370   -0.0425 H   0  0  0  0  0  0  0  0  0  0  0  0
   -3.4915   -1.8620    0.6510 H   0  0  0  0  0  0  0  0  0  0  0  0
   -3.9793   -0.4008   -0.2523 H   0  0  0  0  0  0  0  0  0  0  0  0
   -2.2848   -0.4468    2.3501 H   0  0  0  0  0  0  0  0  0  0  0  0
   -4.0495   -0.1731    2.2905 H   0  0  0  0  0  0  0  0  0  0  0  0
   -0.7940    1.4091    1.9724 H   0  0  0  0  0  0  0  0  0  0  0  0
   -0.4422    3.8068    1.4803 H   0  0  0  0  0  0  0  0  0  0  0  0
   -2.3328    5.2115    0.7186 H   0  0  0  0  0  0  0  0  0  0  0  0
   -4.9508    1.8149    0.9107 H   0  0  0  0  0  0  0  0  0  0  0  0
    0.1030    0.3566   -4.8474 H   0  0  0  0  0  0  0  0  0  0  0  0
   -0.4537   -1.0787   -6.7766 H   0  0  0  0  0  0  0  0  0  0  0  0
   -1.5564   -3.2723   -6.3997 H   0  0  0  0  0  0  0  0  0  0  0  0
   -1.5662   -2.6431   -2.2311 H   0  0  0  0  0  0  0  0  0  0  0  0
    1.2552   -1.9705    0.9158 H   0  0  0  0  0  0  0  0  0  0  0  0
    2.0068   -0.9593    3.0231 H   0  0  0  0  0  0  0  0  0  0  0  0
    2.2200    1.4024    5.7276 H   0  0  0  0  0  0  0  0  0  0  0  0
    0.7346    0.8994    4.5803 H   0  0  0  0  0  0  0  0  0  0  0  0
    0.7960    3.0573    3.5439 H   0  0  0  0  0  0  0  0  0  0  0  0
    2.2827    3.5720    4.6817 H   0  0  0  0  0  0  0  0  0  0  0  0
  1  2  1  0
  2  3  1  0
  3  4  2  0
  4  5  1  0
  5  6  2  0
  6  7  1  0
  7  8  1  0
  8  9  2  0
  8 10  1  0
 10 11  2  0
 11 12  1  0
 12 13  2  0
 13 14  1  0
  7 15  1  0
 15 16  1  0
 16 17  2  0
 16 18  1  0
 18 19  1  0
 19 20  1  0
 20 21  1  0
 21 22  2  0
 22 23  1  0
 23 24  2  0
 24 25  1  0
 25 26  1  0
 25 27  2  0
 15 28  1  0
 28 29  2  0
 29 30  1  0
 30 31  2  0
 31 32  1  0
 32 33  2  0
  6 34  1  0
 34 35  2  0
  2 36  1  0
 36 37  1  0
 37  2  1  0
 35  3  1  0
 14 10  1  0
 27 21  1  0
 33 28  1  0
  1 38  1  0
  1 39  1  0
  1 40  1  0
  4 41  1  0
  5 42  1  0
 11 43  1  0
 12 44  1  0
 13 45  1  0
 15 46  1  0
 18 47  1  0
 19 48  1  0
 19 49  1  0
 20 50  1  0
 20 51  1  0
 22 52  1  0
 23 53  1  0
 24 54  1  0
 27 55  1  0
 29 56  1  0
 30 57  1  0
 31 58  1  0
 33 59  1  0
 34 60  1  0
 35 61  1  0
 36 62  1  0
 36 63  1  0
 37 64  1  0
 37 65  1  0
M  END
$$$$
