*****
 OpenBabel06282212483D

 55 58  0  0  1  0  0  0  0  0999 V2000
    1.2636    0.7921   -0.0035 O   0  0  0  0  0  0  0  0  0  0  0  0
    2.3886    0.3363    0.0255 C   0  0  0  0  0  0  0  0  0  0  0  0
    3.1419    0.4414   -1.1011 N   0  0  0  0  0  0  0  0  0  0  0  0
    4.6111    0.3934   -1.2411 C   0  0  0  0  0  0  0  0  0  0  0  0
    5.0822   -0.4090   -2.4670 C   0  0  0  0  0  0  0  0  0  0  0  0
    4.5972    0.1347   -3.8043 C   0  0  0  0  0  0  0  0  0  0  0  0
    4.7311    1.4896   -4.1249 C   0  0  0  0  0  0  0  0  0  0  0  0
    4.3108    1.9646   -5.3661 C   0  0  0  0  0  0  0  0  0  0  0  0
    3.7672    1.0876   -6.3018 C   0  0  0  0  0  0  0  0  0  0  0  0
    3.6430   -0.2649   -5.9921 C   0  0  0  0  0  0  0  0  0  0  0  0
    2.9881   -1.3612   -7.1587 Cl  0  0  0  0  0  0  0  0  0  0  0  0
    4.0542   -0.7399   -4.7482 C   0  0  0  0  0  0  0  0  0  0  0  0
    2.9686   -0.2838    1.3028 C   0  0  1  0  0  0  0  0  0  0  0  0
    2.6870    0.5847    2.5342 C   0  0  0  0  0  0  0  0  0  0  0  0
    2.4180    0.0634    3.8038 C   0  0  0  0  0  0  0  0  0  0  0  0
    2.2471    0.9322    4.8777 C   0  0  0  0  0  0  0  0  0  0  0  0
    2.3861    2.3018    4.6688 C   0  0  0  0  0  0  0  0  0  0  0  0
    2.6861    2.8273    3.4623 N   0  0  0  0  0  0  0  0  0  0  0  0
    2.8303    1.9738    2.4248 C   0  0  0  0  0  0  0  0  0  0  0  0
    2.7133   -1.7613    1.4289 N   0  0  0  0  0  0  0  0  0  0  0  0
    3.6350   -2.7204    1.0855 C   0  0  0  0  0  0  0  0  0  0  0  0
    3.2399   -3.8160    0.7297 O   0  0  0  0  0  0  0  0  0  0  0  0
    5.0917   -2.4157    1.0843 C   0  0  0  0  0  0  0  0  0  0  0  0
    5.7758   -1.4890    1.8413 C   0  0  0  0  0  0  0  0  0  0  0  0
    7.1255   -1.5502    1.4044 C   0  0  0  0  0  0  0  0  0  0  0  0
    7.1545   -2.5514    0.4760 C   0  0  0  0  0  0  0  0  0  0  0  0
    5.9390   -3.1660    0.2902 O   0  0  0  0  0  0  0  0  0  0  0  0
    1.3562   -2.1853    1.7148 C   0  0  0  0  0  0  0  0  0  0  0  0
    0.2992   -1.9461    0.8287 C   0  0  0  0  0  0  0  0  0  0  0  0
   -1.0063   -2.2986    1.1660 C   0  0  0  0  0  0  0  0  0  0  0  0
   -1.2630   -2.9519    2.3679 C   0  0  0  0  0  0  0  0  0  0  0  0
   -2.8861   -3.3670    2.7994 Cl  0  0  0  0  0  0  0  0  0  0  0  0
   -0.2085   -3.2878    3.2120 C   0  0  0  0  0  0  0  0  0  0  0  0
    1.0936   -2.9162    2.8803 C   0  0  0  0  0  0  0  0  0  0  0  0
    2.6680    0.8364   -1.9002 H   0  0  0  0  0  0  0  0  0  0  0  0
    4.9718    1.4222   -1.3207 H   0  0  0  0  0  0  0  0  0  0  0  0
    5.0973   -0.0492   -0.3783 H   0  0  0  0  0  0  0  0  0  0  0  0
    6.1746   -0.4228   -2.4726 H   0  0  0  0  0  0  0  0  0  0  0  0
    4.7599   -1.4462   -2.3434 H   0  0  0  0  0  0  0  0  0  0  0  0
    5.1693    2.1850   -3.4136 H   0  0  0  0  0  0  0  0  0  0  0  0
    4.4141    3.0197   -5.6073 H   0  0  0  0  0  0  0  0  0  0  0  0
    3.4473    1.4581   -7.2726 H   0  0  0  0  0  0  0  0  0  0  0  0
    3.9600   -1.7993   -4.5203 H   0  0  0  0  0  0  0  0  0  0  0  0
    4.0173   -0.1295    1.1720 H   0  0  0  0  0  0  0  0  0  0  0  0
    2.3618   -1.0015    3.9817 H   0  0  0  0  0  0  0  0  0  0  0  0
    2.0233    0.5458    5.8688 H   0  0  0  0  0  0  0  0  0  0  0  0
    2.2742    3.0129    5.4846 H   0  0  0  0  0  0  0  0  0  0  0  0
    3.0915    2.4422    1.4774 H   0  0  0  0  0  0  0  0  0  0  0  0
    5.3888   -0.8127    2.5958 H   0  0  0  0  0  0  0  0  0  0  0  0
    7.9475   -0.9244    1.7364 H   0  0  0  0  0  0  0  0  0  0  0  0
    7.9570   -2.9551   -0.1308 H   0  0  0  0  0  0  0  0  0  0  0  0
    0.4751   -1.4888   -0.1381 H   0  0  0  0  0  0  0  0  0  0  0  0
   -1.8229   -2.0636    0.4875 H   0  0  0  0  0  0  0  0  0  0  0  0
   -0.4005   -3.8320    4.1336 H   0  0  0  0  0  0  0  0  0  0  0  0
    1.9066   -3.1897    3.5482 H   0  0  0  0  0  0  0  0  0  0  0  0
  1  2  2  0  0  0  0
  2  3  1  0  0  0  0
  2 13  1  0  0  0  0
  3  4  1  0  0  0  0
  3 35  1  0  0  0  0
  4  5  1  0  0  0  0
  4 36  1  0  0  0  0
  4 37  1  0  0  0  0
  5  6  1  0  0  0  0
  5 38  1  0  0  0  0
  5 39  1  0  0  0  0
  6  7  2  0  0  0  0
  7  8  1  0  0  0  0
  7 40  1  0  0  0  0
  8  9  2  0  0  0  0
  8 41  1  0  0  0  0
  9 10  1  0  0  0  0
  9 42  1  0  0  0  0
 10 11  1  0  0  0  0
 10 12  2  0  0  0  0
 12  6  1  0  0  0  0
 12 43  1  0  0  0  0
 13 14  1  0  0  0  0
 13 20  1  0  0  0  0
 13 44  1  6  0  0  0
 14 15  2  0  0  0  0
 15 16  1  0  0  0  0
 15 45  1  0  0  0  0
 16 17  2  0  0  0  0
 16 46  1  0  0  0  0
 17 18  1  0  0  0  0
 17 47  1  0  0  0  0
 18 19  2  0  0  0  0
 19 14  1  0  0  0  0
 19 48  1  0  0  0  0
 20 21  1  0  0  0  0
 20 28  1  0  0  0  0
 21 22  2  0  0  0  0
 21 23  1  0  0  0  0
 23 24  2  0  0  0  0
 24 25  1  0  0  0  0
 24 49  1  0  0  0  0
 25 26  2  0  0  0  0
 25 50  1  0  0  0  0
 26 27  1  0  0  0  0
 26 51  1  0  0  0  0
 27 23  1  0  0  0  0
 28 29  2  0  0  0  0
 29 30  1  0  0  0  0
 29 52  1  0  0  0  0
 30 31  2  0  0  0  0
 30 53  1  0  0  0  0
 31 32  1  0  0  0  0
 31 33  1  0  0  0  0
 33 34  2  0  0  0  0
 33 54  1  0  0  0  0
 34 28  1  0  0  0  0
 34 55  1  0  0  0  0
M  END
$$$$
