
     RDKit          3D

 54 57  0  0  0  0  0  0  0  0999 V2000
    0.3887   -0.0124   -1.1244 O   0  0  0  0  0  0  0  0  0  0  0  0
    0.4891   -0.3229    0.0944 C   0  0  0  0  0  0  0  0  0  0  0  0
    1.7721   -0.6499    0.6482 N   0  0  0  0  0  0  0  0  0  0  0  0
    2.9960   -0.6489   -0.1496 C   0  0  0  0  0  0  0  0  0  0  0  0
    3.4645    0.7855   -0.4084 C   0  0  0  0  0  0  0  0  0  0  0  0
    4.7338    0.7896   -1.2169 C   0  0  0  0  0  0  0  0  0  0  0  0
    4.6787    0.7814   -2.6205 C   0  0  0  0  0  0  0  0  0  0  0  0
    5.8578    0.7523   -3.3711 C   0  0  0  0  0  0  0  0  0  0  0  0
    7.0980    0.7211   -2.7276 C   0  0  0  0  0  0  0  0  0  0  0  0
    7.1618    0.7149   -1.3303 C   0  0  0  0  0  0  0  0  0  0  0  0
    8.7186    0.6646   -0.5237 Cl  0  0  0  0  0  0  0  0  0  0  0  0
    5.9832    0.7442   -0.5760 C   0  0  0  0  0  0  0  0  0  0  0  0
   -0.7340   -0.3348    0.9835 C   0  0  0  0  0  0  0  0  0  0  0  0
   -1.0097   -1.6902    1.6138 C   0  0  0  0  0  0  0  0  0  0  0  0
   -0.6577   -2.9012    0.9877 C   0  0  0  0  0  0  0  0  0  0  0  0
   -0.9744   -4.1198    1.5893 C   0  0  0  0  0  0  0  0  0  0  0  0
   -1.6539   -4.1255    2.8074 C   0  0  0  0  0  0  0  0  0  0  0  0
   -2.0066   -2.9524    3.3949 N   0  0  0  0  0  0  0  0  0  0  0  0
   -1.7086   -1.7516    2.8310 C   0  0  0  0  0  0  0  0  0  0  0  0
   -1.9304    0.1680    0.2751 N   0  0  0  0  0  0  0  0  0  0  0  0
   -2.6658   -0.6810   -0.6338 C   0  0  0  0  0  0  0  0  0  0  0  0
   -2.0498   -1.4893   -1.3786 O   0  0  0  0  0  0  0  0  0  0  0  0
   -4.1358   -0.6306   -0.7112 C   0  0  0  0  0  0  0  0  0  0  0  0
   -4.9888   -0.0149    0.1859 C   0  0  0  0  0  0  0  0  0  0  0  0
   -6.2605   -0.2469   -0.2912 C   0  0  0  0  0  0  0  0  0  0  0  0
   -6.1080   -0.9909   -1.4430 C   0  0  0  0  0  0  0  0  0  0  0  0
   -4.8318   -1.2055   -1.6651 O   0  0  0  0  0  0  0  0  0  0  0  0
   -2.2410    1.5756    0.3293 C   0  0  0  0  0  0  0  0  0  0  0  0
   -2.3906    2.2329    1.5604 C   0  0  0  0  0  0  0  0  0  0  0  0
   -2.7030    3.5927    1.5936 C   0  0  0  0  0  0  0  0  0  0  0  0
   -2.8655    4.2869    0.3937 C   0  0  0  0  0  0  0  0  0  0  0  0
   -2.7226    3.6390   -0.7925 N   0  0  0  0  0  0  0  0  0  0  0  0
   -2.4199    2.3146   -0.8516 C   0  0  0  0  0  0  0  0  0  0  0  0
    1.8301   -0.9536    1.6465 H   0  0  0  0  0  0  0  0  0  0  0  0
    2.8191   -1.1816   -1.1097 H   0  0  0  0  0  0  0  0  0  0  0  0
    3.7896   -1.1968    0.4045 H   0  0  0  0  0  0  0  0  0  0  0  0
    3.6316    1.3004    0.5632 H   0  0  0  0  0  0  0  0  0  0  0  0
    2.6756    1.3521   -0.9485 H   0  0  0  0  0  0  0  0  0  0  0  0
    3.7239    0.7959   -3.1316 H   0  0  0  0  0  0  0  0  0  0  0  0
    5.8100    0.7503   -4.4524 H   0  0  0  0  0  0  0  0  0  0  0  0
    8.0071    0.6973   -3.3149 H   0  0  0  0  0  0  0  0  0  0  0  0
    6.0397    0.7298    0.5057 H   0  0  0  0  0  0  0  0  0  0  0  0
   -0.4840    0.3568    1.8172 H   0  0  0  0  0  0  0  0  0  0  0  0
   -0.1426   -2.9081    0.0360 H   0  0  0  0  0  0  0  0  0  0  0  0
   -0.7000   -5.0521    1.1129 H   0  0  0  0  0  0  0  0  0  0  0  0
   -1.9069   -5.0633    3.2836 H   0  0  0  0  0  0  0  0  0  0  0  0
   -2.0195   -0.8429    3.3303 H   0  0  0  0  0  0  0  0  0  0  0  0
   -4.7275    0.5202    1.0884 H   0  0  0  0  0  0  0  0  0  0  0  0
   -7.1909    0.0804    0.1529 H   0  0  0  0  0  0  0  0  0  0  0  0
   -6.9076   -1.3520   -2.0757 H   0  0  0  0  0  0  0  0  0  0  0  0
   -2.2892    1.6899    2.4910 H   0  0  0  0  0  0  0  0  0  0  0  0
   -2.8237    4.1028    2.5405 H   0  0  0  0  0  0  0  0  0  0  0  0
   -3.1084    5.3410    0.4051 H   0  0  0  0  0  0  0  0  0  0  0  0
   -2.3103    1.8388   -1.8173 H   0  0  0  0  0  0  0  0  0  0  0  0
  1  2  2  0
  2  3  1  0
  3  4  1  0
  4  5  1  0
  5  6  1  0
  6  7  2  0
  7  8  1  0
  8  9  2  0
  9 10  1  0
 10 11  1  0
 10 12  2  0
  2 13  1  0
 13 14  1  0
 14 15  2  0
 15 16  1  0
 16 17  2  0
 17 18  1  0
 18 19  2  0
 13 20  1  0
 20 21  1  0
 21 22  2  0
 21 23  1  0
 23 24  2  0
 24 25  1  0
 25 26  2  0
 26 27  1  0
 20 28  1  0
 28 29  2  0
 29 30  1  0
 30 31  2  0
 31 32  1  0
 32 33  2  0
 12  6  1  0
 19 14  1  0
 27 23  1  0
 33 28  1  0
  3 34  1  0
  4 35  1  0
  4 36  1  0
  5 37  1  0
  5 38  1  0
  7 39  1  0
  8 40  1  0
  9 41  1  0
 12 42  1  0
 13 43  1  0
 15 44  1  0
 16 45  1  0
 17 46  1  0
 19 47  1  0
 24 48  1  0
 25 49  1  0
 26 50  1  0
 29 51  1  0
 30 52  1  0
 31 53  1  0
 33 54  1  0
M  END
$$$$
