lig_18652-1
     RDKit          3D

 55 56  0  0  0  0  0  0  0  0999 V2000
   24.4150   10.2470   30.7180 C   0  0  0  0  0  0  0  0  0  0  0  0
   23.2190   11.0460   30.1840 C   0  0  0  0  0  0  0  0  0  0  0  0
   22.7150   10.5300   28.8280 C   0  0  0  0  0  0  0  0  0  0  0  0
   22.1810   11.2380   31.1570 O   0  0  0  0  0  0  0  0  0  0  0  0
   21.4030   10.2020   31.6510 C   0  0  0  0  0  0  0  0  0  0  0  0
   21.7300    8.9410   31.2770 N   0  0  0  0  0  0  0  0  0  0  0  0
   20.9700    7.9250   31.6880 C   0  0  0  0  0  0  0  0  0  0  0  0
   19.8690    8.0880   32.5170 C   0  0  0  0  0  0  0  0  0  0  0  0
   19.5320    9.3740   32.9070 C   0  0  0  0  0  0  0  0  0  0  0  0
   18.4020    9.4820   33.7080 N   0  0  0  0  0  0  0  0  0  0  0  0
   20.3040   10.4680   32.4770 C   0  0  0  0  0  0  0  0  0  0  0  0
   19.9960   11.8470   32.8390 C   0  0  0  0  0  0  0  0  0  0  0  0
   19.7580   12.9440   33.1220 N   0  0  0  0  0  0  0  0  0  0  0  0
   21.4460    6.7430   31.1640 N   0  0  0  0  0  0  0  0  0  0  0  0
   20.8520    5.5560   31.0440 C   0  0  0  0  0  0  0  0  0  0  0  0
   19.7090    5.3140   31.4220 O   0  0  0  0  0  0  0  0  0  0  0  0
   21.6440    4.4870   30.3020 C   0  0  0  0  0  0  0  0  0  0  0  0
   22.9980    4.1710   30.9300 C   0  0  0  0  0  0  0  0  0  0  0  0
   24.1220    4.9620   30.6450 C   0  0  0  0  0  0  0  0  0  0  0  0
   23.9390    6.0560   29.8170 O   0  0  0  0  0  0  0  0  0  0  0  0
   25.0660    6.8320   29.4150 C   0  0  0  0  0  0  0  0  0  0  0  0
   25.3550    4.6080   31.2080 C   0  0  0  0  0  0  0  0  0  0  0  0
   25.4610    3.5030   32.0580 C   0  0  0  0  0  0  0  0  0  0  0  0
   27.0700    3.0790   32.7390 S   0  0  0  0  0  0  0  0  0  0  0  0
   26.9130    2.7680   34.1690 O   0  0  0  0  0  0  0  0  0  0  0  0
   28.0400    4.1080   32.3300 O   0  0  0  0  0  0  0  0  0  0  0  0
   27.5190    1.5240   31.8680 C   0  0  0  0  0  0  0  0  0  0  0  0
   24.3410    2.7130   32.3510 C   0  0  0  0  0  0  0  0  0  0  0  0
   23.1130    3.0640   31.7750 C   0  0  0  0  0  0  0  0  0  0  0  0
   24.5000    1.6310   33.1960 O   0  0  0  0  0  0  0  0  0  0  0  0
   23.5380    0.5810   33.1830 C   0  0  0  0  0  0  0  0  0  0  0  0
   24.7410   10.6620   31.6660 H   0  0  0  0  0  0  0  0  0  0  0  0
   24.1780    9.1990   30.8860 H   0  0  0  0  0  0  0  0  0  0  0  0
   25.2500   10.2780   30.0190 H   0  0  0  0  0  0  0  0  0  0  0  0
   23.5910   12.0560   30.0010 H   0  0  0  0  0  0  0  0  0  0  0  0
   21.9550   11.1990   28.4340 H   0  0  0  0  0  0  0  0  0  0  0  0
   23.5250   10.4950   28.1010 H   0  0  0  0  0  0  0  0  0  0  0  0
   22.2880    9.5300   28.8820 H   0  0  0  0  0  0  0  0  0  0  0  0
   19.2800    7.2460   32.8400 H   0  0  0  0  0  0  0  0  0  0  0  0
   17.9100    8.6430   34.0020 H   0  0  0  0  0  0  0  0  0  0  0  0
   18.0220   10.3950   33.9430 H   0  0  0  0  0  0  0  0  0  0  0  0
   22.3660    6.8520   30.7690 H   0  0  0  0  0  0  0  0  0  0  0  0
   21.0570    3.5780   30.2100 H   0  0  0  0  0  0  0  0  0  0  0  0
   21.7880    4.8640   29.2940 H   0  0  0  0  0  0  0  0  0  0  0  0
   25.7830    6.2360   28.8490 H   0  0  0  0  0  0  0  0  0  0  0  0
   24.7300    7.6420   28.7670 H   0  0  0  0  0  0  0  0  0  0  0  0
   25.5720    7.2880   30.2670 H   0  0  0  0  0  0  0  0  0  0  0  0
   26.2390    5.1870   30.9960 H   0  0  0  0  0  0  0  0  0  0  0  0
   27.5470    1.7070   30.7960 H   0  0  0  0  0  0  0  0  0  0  0  0
   28.4940    1.1900   32.2140 H   0  0  0  0  0  0  0  0  0  0  0  0
   26.7700    0.7660   32.0900 H   0  0  0  0  0  0  0  0  0  0  0  0
   22.2360    2.4670   31.9690 H   0  0  0  0  0  0  0  0  0  0  0  0
   22.5550    0.9010   33.5260 H   0  0  0  0  0  0  0  0  0  0  0  0
   23.4440    0.1420   32.1900 H   0  0  0  0  0  0  0  0  0  0  0  0
   23.8680   -0.2110   33.8550 H   0  0  0  0  0  0  0  0  0  0  0  0
  1  2  1  0
  1 32  1  0
  1 33  1  0
  1 34  1  0
  2  3  1  0
  2  4  1  0
  2 35  1  0
  3 36  1  0
  3 37  1  0
  3 38  1  0
  4  5  1  0
  5 11  2  0
  5  6  1  0
  6  7  2  0
  7  8  1  0
  7 14  1  0
  8  9  2  0
  8 39  1  0
  9 10  1  0
  9 11  1  0
 10 40  1  0
 10 41  1  0
 11 12  1  0
 12 13  3  0
 14 15  1  0
 14 42  1  0
 15 16  2  0
 15 17  1  0
 17 18  1  0
 17 43  1  0
 17 44  1  0
 18 29  1  0
 18 19  2  0
 19 20  1  0
 19 22  1  0
 20 21  1  0
 21 45  1  0
 21 46  1  0
 21 47  1  0
 22 23  2  0
 22 48  1  0
 23 24  1  0
 23 28  1  0
 24 25  2  0
 24 26  2  0
 24 27  1  0
 27 49  1  0
 27 50  1  0
 27 51  1  0
 28 29  2  0
 28 30  1  0
 29 52  1  0
 30 31  1  0
 31 53  1  0
 31 54  1  0
 31 55  1  0
M  END
$$$$
