lig_18628-1
     RDKit          3D

 41 42  0  0  0  0  0  0  0  0999 V2000
   23.9600   12.3160   30.2950 C   0  0  0  0  0  0  0  0  0  0  0  0
   23.2560   10.9820   30.5540 C   0  0  0  0  0  0  0  0  0  0  0  0
   22.1040   11.2450   31.3510 O   0  0  0  0  0  0  0  0  0  0  0  0
   21.3110   10.1910   31.7750 C   0  0  0  0  0  0  0  0  0  0  0  0
   21.6910    8.9380   31.4090 N   0  0  0  0  0  0  0  0  0  0  0  0
   20.9230    7.9050   31.7790 C   0  0  0  0  0  0  0  0  0  0  0  0
   19.7730    8.0450   32.5400 C   0  0  0  0  0  0  0  0  0  0  0  0
   19.3900    9.3200   32.9190 C   0  0  0  0  0  0  0  0  0  0  0  0
   18.2230    9.3990   33.6690 N   0  0  0  0  0  0  0  0  0  0  0  0
   20.1630   10.4310   32.5380 C   0  0  0  0  0  0  0  0  0  0  0  0
   19.8170   11.8040   32.8910 C   0  0  0  0  0  0  0  0  0  0  0  0
   19.5530   12.8970   33.1660 N   0  0  0  0  0  0  0  0  0  0  0  0
   21.4660    6.7160   31.3470 N   0  0  0  0  0  0  0  0  0  0  0  0
   20.9020    5.5220   31.1450 C   0  0  0  0  0  0  0  0  0  0  0  0
   19.7010    5.3110   31.3000 O   0  0  0  0  0  0  0  0  0  0  0  0
   21.8100    4.3700   30.6810 C   0  0  0  0  0  0  0  0  0  0  0  0
   23.2680    4.7660   30.3670 C   0  0  0  0  0  0  0  0  0  0  0  0
   24.3650    4.2250   31.0650 C   0  0  0  0  0  0  0  0  0  0  0  0
   24.1950    3.1870   32.1610 C   0  0  0  0  0  0  0  0  0  0  0  0
   25.6600    4.6620   30.7690 C   0  0  0  0  0  0  0  0  0  0  0  0
   25.8780    5.6250   29.7870 C   0  0  0  0  0  0  0  0  0  0  0  0
   24.8020    6.1470   29.0790 C   0  0  0  0  0  0  0  0  0  0  0  0
   23.5090    5.7100   29.3590 C   0  0  0  0  0  0  0  0  0  0  0  0
   24.2590   12.7900   31.2290 H   0  0  0  0  0  0  0  0  0  0  0  0
   24.8530   12.1750   29.6860 H   0  0  0  0  0  0  0  0  0  0  0  0
   23.3010   13.0050   29.7670 H   0  0  0  0  0  0  0  0  0  0  0  0
   22.9670   10.5180   29.6080 H   0  0  0  0  0  0  0  0  0  0  0  0
   23.9360   10.2990   31.0680 H   0  0  0  0  0  0  0  0  0  0  0  0
   19.1890    7.1880   32.8320 H   0  0  0  0  0  0  0  0  0  0  0  0
   17.8430   10.3050   33.9320 H   0  0  0  0  0  0  0  0  0  0  0  0
   17.7720    8.5490   33.9950 H   0  0  0  0  0  0  0  0  0  0  0  0
   22.4450    6.8120   31.1370 H   0  0  0  0  0  0  0  0  0  0  0  0
   21.7440    3.5900   31.4370 H   0  0  0  0  0  0  0  0  0  0  0  0
   21.3670    3.9450   29.7840 H   0  0  0  0  0  0  0  0  0  0  0  0
   23.5760    2.3530   31.8280 H   0  0  0  0  0  0  0  0  0  0  0  0
   25.1500    2.7670   32.4780 H   0  0  0  0  0  0  0  0  0  0  0  0
   23.7380    3.6560   33.0280 H   0  0  0  0  0  0  0  0  0  0  0  0
   26.5080    4.2620   31.3080 H   0  0  0  0  0  0  0  0  0  0  0  0
   26.8830    5.9670   29.5750 H   0  0  0  0  0  0  0  0  0  0  0  0
   24.9760    6.8920   28.3170 H   0  0  0  0  0  0  0  0  0  0  0  0
   22.6800    6.1270   28.8050 H   0  0  0  0  0  0  0  0  0  0  0  0
  1  2  1  0
  1 24  1  0
  1 25  1  0
  1 26  1  0
  2  3  1  0
  2 27  1  0
  2 28  1  0
  3  4  1  0
  4 10  2  0
  4  5  1  0
  5  6  2  0
  6  7  1  0
  6 13  1  0
  7  8  2  0
  7 29  1  0
  8  9  1  0
  8 10  1  0
  9 30  1  0
  9 31  1  0
 10 11  1  0
 11 12  3  0
 13 14  1  0
 13 32  1  0
 14 15  2  0
 14 16  1  0
 16 17  1  0
 16 33  1  0
 16 34  1  0
 17 23  1  0
 17 18  2  0
 18 19  1  0
 18 20  1  0
 19 35  1  0
 19 36  1  0
 19 37  1  0
 20 21  2  0
 20 38  1  0
 21 22  1  0
 21 39  1  0
 22 23  2  0
 22 40  1  0
 23 41  1  0
M  END
$$$$
