lig_18638-1
     RDKit          3D

 52 53  0  0  0  0  0  0  0  0999 V2000
   24.0830   12.3870   30.2430 C   0  0  0  0  0  0  0  0  0  0  0  0
   23.3510   11.0610   30.4630 C   0  0  0  0  0  0  0  0  0  0  0  0
   22.2130   11.3220   31.2790 O   0  0  0  0  0  0  0  0  0  0  0  0
   21.4140   10.2720   31.6980 C   0  0  0  0  0  0  0  0  0  0  0  0
   21.7580    9.0210   31.2860 N   0  0  0  0  0  0  0  0  0  0  0  0
   20.9830    7.9920   31.6590 C   0  0  0  0  0  0  0  0  0  0  0  0
   19.8720    8.1370   32.4780 C   0  0  0  0  0  0  0  0  0  0  0  0
   19.5220    9.4100   32.8930 C   0  0  0  0  0  0  0  0  0  0  0  0
   18.3830    9.4920   33.6850 N   0  0  0  0  0  0  0  0  0  0  0  0
   20.2930   10.5150   32.5000 C   0  0  0  0  0  0  0  0  0  0  0  0
   19.9660   11.8860   32.8770 C   0  0  0  0  0  0  0  0  0  0  0  0
   19.7140   12.9770   33.1710 N   0  0  0  0  0  0  0  0  0  0  0  0
   21.4470    6.8090   31.1180 N   0  0  0  0  0  0  0  0  0  0  0  0
   20.8650    5.6100   31.0300 C   0  0  0  0  0  0  0  0  0  0  0  0
   19.7380    5.3480   31.4460 O   0  0  0  0  0  0  0  0  0  0  0  0
   21.6490    4.5410   30.2810 C   0  0  0  0  0  0  0  0  0  0  0  0
   23.0100    4.2330   30.8980 C   0  0  0  0  0  0  0  0  0  0  0  0
   24.1200    5.0420   30.6150 C   0  0  0  0  0  0  0  0  0  0  0  0
   23.9160    6.1430   29.8020 O   0  0  0  0  0  0  0  0  0  0  0  0
   24.9740    7.0760   29.5920 C   0  0  0  0  0  0  0  0  0  0  0  0
   25.3630    4.6930   31.1580 C   0  0  0  0  0  0  0  0  0  0  0  0
   25.4890    3.5790   31.9950 C   0  0  0  0  0  0  0  0  0  0  0  0
   27.1110    3.1590   32.6460 S   0  0  0  0  0  0  0  0  0  0  0  0
   28.0640    4.2090   32.2490 O   0  0  0  0  0  0  0  0  0  0  0  0
   26.9780    2.8100   34.0690 O   0  0  0  0  0  0  0  0  0  0  0  0
   27.5660    1.6310   31.7310 C   0  0  0  0  0  0  0  0  0  0  0  0
   24.3790    2.7780   32.2960 C   0  0  0  0  0  0  0  0  0  0  0  0
   23.1420    3.1200   31.7350 C   0  0  0  0  0  0  0  0  0  0  0  0
   24.5590    1.6920   33.1310 O   0  0  0  0  0  0  0  0  0  0  0  0
   23.5930    0.6440   33.1470 C   0  0  0  0  0  0  0  0  0  0  0  0
   24.9670   12.2480   29.6210 H   0  0  0  0  0  0  0  0  0  0  0  0
   23.4340   13.1080   29.7450 H   0  0  0  0  0  0  0  0  0  0  0  0
   24.3990   12.8220   31.1910 H   0  0  0  0  0  0  0  0  0  0  0  0
   23.0430   10.6330   29.5060 H   0  0  0  0  0  0  0  0  0  0  0  0
   24.0200   10.3470   30.9490 H   0  0  0  0  0  0  0  0  0  0  0  0
   19.2770    7.2900   32.7760 H   0  0  0  0  0  0  0  0  0  0  0  0
   17.9030    8.6440   33.9740 H   0  0  0  0  0  0  0  0  0  0  0  0
   17.9980   10.3980   33.9420 H   0  0  0  0  0  0  0  0  0  0  0  0
   22.3580    6.9170   30.6990 H   0  0  0  0  0  0  0  0  0  0  0  0
   21.0630    3.6300   30.2000 H   0  0  0  0  0  0  0  0  0  0  0  0
   21.7820    4.9130   29.2700 H   0  0  0  0  0  0  0  0  0  0  0  0
   24.6150    7.8880   28.9590 H   0  0  0  0  0  0  0  0  0  0  0  0
   25.3130    7.5220   30.5280 H   0  0  0  0  0  0  0  0  0  0  0  0
   25.8230    6.6180   29.0820 H   0  0  0  0  0  0  0  0  0  0  0  0
   26.2400    5.2810   30.9370 H   0  0  0  0  0  0  0  0  0  0  0  0
   27.5800    1.8410   30.6640 H   0  0  0  0  0  0  0  0  0  0  0  0
   28.5480    1.2980   32.0580 H   0  0  0  0  0  0  0  0  0  0  0  0
   26.8260    0.8610   31.9420 H   0  0  0  0  0  0  0  0  0  0  0  0
   22.2720    2.5150   31.9350 H   0  0  0  0  0  0  0  0  0  0  0  0
   23.4750    0.1970   32.1620 H   0  0  0  0  0  0  0  0  0  0  0  0
   22.6190    0.9690   33.5090 H   0  0  0  0  0  0  0  0  0  0  0  0
   23.9360   -0.1430   33.8180 H   0  0  0  0  0  0  0  0  0  0  0  0
  1  2  1  0
  1 31  1  0
  1 32  1  0
  1 33  1  0
  2  3  1  0
  2 34  1  0
  2 35  1  0
  3  4  1  0
  4 10  2  0
  4  5  1  0
  5  6  2  0
  6  7  1  0
  6 13  1  0
  7  8  2  0
  7 36  1  0
  8  9  1  0
  8 10  1  0
  9 37  1  0
  9 38  1  0
 10 11  1  0
 11 12  3  0
 13 14  1  0
 13 39  1  0
 14 15  2  0
 14 16  1  0
 16 17  1  0
 16 40  1  0
 16 41  1  0
 17 28  1  0
 17 18  2  0
 18 19  1  0
 18 21  1  0
 19 20  1  0
 20 42  1  0
 20 43  1  0
 20 44  1  0
 21 22  2  0
 21 45  1  0
 22 23  1  0
 22 27  1  0
 23 24  2  0
 23 25  2  0
 23 26  1  0
 26 46  1  0
 26 47  1  0
 26 48  1  0
 27 28  2  0
 27 29  1  0
 28 49  1  0
 29 30  1  0
 30 50  1  0
 30 51  1  0
 30 52  1  0
M  END
$$$$
