systems/pde2/lig_50181001/lig_50181001.pdb
 OpenBabel09231909243D

 60 64  0  0  0  0  0  0  0  0999 V2000
   -5.6720   26.8080   18.5440 C   0  0  0  0  0  0  0  0  0  0  0  0
   -5.7060   25.3040   18.8480 C   0  0  0  0  0  0  0  0  0  0  0  0
   -4.3920   24.5940   18.4780 C   0  0  0  0  0  0  0  0  0  0  0  0
   -4.5490   23.0700   18.3230 C   0  0  0  0  0  0  0  0  0  0  0  0
   -3.2900   22.4520   18.0510 O   0  0  0  0  0  0  0  0  0  0  0  0
   -2.3780   22.2610   19.0720 C   0  0  0  0  0  0  0  0  0  0  0  0
   -1.0750   21.9000   18.7190 C   0  0  0  0  0  0  0  0  0  0  0  0
   -0.0960   21.6390   19.6220 N   0  0  0  0  0  0  0  0  0  0  0  0
   -0.4090   21.7310   20.9380 C   0  0  0  0  0  0  0  0  0  0  0  0
   -2.6670   22.3670   20.4430 C   0  0  0  0  0  0  0  0  0  0  0  0
   -1.6780   22.0990   21.3940 C   0  0  0  0  0  0  0  0  0  0  0  0
   -2.0080   22.0870   22.8420 C   0  0  0  0  0  0  0  0  0  0  0  0
   -2.9560   21.3040   23.3160 N   0  0  0  0  0  0  0  0  0  0  0  0
   -2.9530   21.3360   24.6930 N   0  0  0  0  0  0  0  0  0  0  0  0
   -1.9680   22.1870   25.0440 C   0  0  0  0  0  0  0  0  0  0  0  0
   -1.4650   22.5800   26.2920 C   0  0  0  0  0  0  0  0  0  0  0  0
   -1.9850   22.0640   27.6200 C   0  0  0  0  0  0  0  0  0  0  0  0
   -0.4410   23.4620   26.3970 N   0  0  0  0  0  0  0  0  0  0  0  0
   -1.3710   22.7400   23.8950 N   0  0  0  0  0  0  0  0  0  0  0  0
   -0.3900   23.6820   23.9640 C   0  0  0  0  0  0  0  0  0  0  0  0
    0.1480   24.3760   22.8360 C   0  0  0  0  0  0  0  0  0  0  0  0
    1.1600   25.3300   23.0180 C   0  0  0  0  0  0  0  0  0  0  0  0
    1.6270   25.6100   24.3030 C   0  0  0  0  0  0  0  0  0  0  0  0
    1.1020   24.9720   25.4180 C   0  0  0  0  0  0  0  0  0  0  0  0
    0.0820   24.0150   25.2710 C   0  0  0  0  0  0  0  0  0  0  0  0
    1.7590   26.1290   21.8550 C   0  0  0  0  0  0  0  0  0  0  0  0
    2.5680   25.3920   20.8680 N   0  0  0  0  0  0  0  0  0  0  0  0
    3.1550   24.1410   21.3610 C   0  0  0  0  0  0  0  0  0  0  0  0
    4.0310   23.4740   20.2830 C   0  0  0  0  0  0  0  0  0  0  0  0
    5.0570   24.3610   19.8530 O   0  0  0  0  0  0  0  0  0  0  0  0
    4.5430   25.5860   19.3370 C   0  0  0  0  0  0  0  0  0  0  0  0
    3.6240   26.2860   20.3640 C   0  0  0  0  0  0  0  0  0  0  0  0
   -6.6040   27.2930   18.8290 H   0  0  0  0  0  0  0  0  0  0  0  0
   -4.8670   27.3040   19.0880 H   0  0  0  0  0  0  0  0  0  0  0  0
   -5.5230   26.9920   17.4800 H   0  0  0  0  0  0  0  0  0  0  0  0
   -6.5320   24.8480   18.3010 H   0  0  0  0  0  0  0  0  0  0  0  0
   -5.9210   25.1520   19.9060 H   0  0  0  0  0  0  0  0  0  0  0  0
   -3.6350   24.8140   19.2310 H   0  0  0  0  0  0  0  0  0  0  0  0
   -4.0160   25.0070   17.5400 H   0  0  0  0  0  0  0  0  0  0  0  0
   -5.1880   22.8630   17.4670 H   0  0  0  0  0  0  0  0  0  0  0  0
   -5.0650   22.6180   19.1710 H   0  0  0  0  0  0  0  0  0  0  0  0
   -0.6300   21.7450   17.0550 Cl  0  0  0  0  0  0  0  0  0  0  0  0
    0.3780   21.4800   21.6340 H   0  0  0  0  0  0  0  0  0  0  0  0
   -3.6550   22.6250   20.7890 H   0  0  0  0  0  0  0  0  0  0  0  0
   -1.1880   21.5780   28.1830 H   0  0  0  0  0  0  0  0  0  0  0  0
   -2.3850   22.8830   28.2180 H   0  0  0  0  0  0  0  0  0  0  0  0
   -2.7810   21.3320   27.4770 H   0  0  0  0  0  0  0  0  0  0  0  0
   -0.2280   24.1970   21.8420 H   0  0  0  0  0  0  0  0  0  0  0  0
    2.3980   26.3530   24.4490 H   0  0  0  0  0  0  0  0  0  0  0  0
    1.4530   25.2230   26.4080 H   0  0  0  0  0  0  0  0  0  0  0  0
    2.3560   26.9400   22.2800 H   0  0  0  0  0  0  0  0  0  0  0  0
    0.9380   26.6110   21.3250 H   0  0  0  0  0  0  0  0  0  0  0  0
    2.3510   23.4520   21.6020 H   0  0  0  0  0  0  0  0  0  0  0  0
    3.7290   24.3030   22.2740 H   0  0  0  0  0  0  0  0  0  0  0  0
    3.4210   23.1620   19.4330 H   0  0  0  0  0  0  0  0  0  0  0  0
    4.4780   22.5650   20.6790 H   0  0  0  0  0  0  0  0  0  0  0  0
    4.0110   25.4080   18.4010 H   0  0  0  0  0  0  0  0  0  0  0  0
    5.3810   26.2380   19.0890 H   0  0  0  0  0  0  0  0  0  0  0  0
    4.2390   26.6510   21.1890 H   0  0  0  0  0  0  0  0  0  0  0  0
    3.1730   27.1650   19.9020 H   0  0  0  0  0  0  0  0  0  0  0  0
  1  2  1  0  0  0  0
  1 33  1  0  0  0  0
  1 34  1  0  0  0  0
  1 35  1  0  0  0  0
  2  3  1  0  0  0  0
  2 36  1  0  0  0  0
  2 37  1  0  0  0  0
  3  4  1  0  0  0  0
  3 38  1  0  0  0  0
  3 39  1  0  0  0  0
  4  5  1  0  0  0  0
  4 40  1  0  0  0  0
  4 41  1  0  0  0  0
  5  6  1  0  0  0  0
  6  7  2  0  0  0  0
  6 10  1  0  0  0  0
  7  8  1  0  0  0  0
  7 42  1  0  0  0  0
  8  9  2  0  0  0  0
  9 11  1  0  0  0  0
  9 43  1  0  0  0  0
 10 11  2  0  0  0  0
 10 44  1  0  0  0  0
 11 12  1  0  0  0  0
 12 13  2  0  0  0  0
 12 19  1  0  0  0  0
 13 14  1  0  0  0  0
 14 15  2  0  0  0  0
 15 16  1  0  0  0  0
 15 19  1  0  0  0  0
 16 17  1  0  0  0  0
 16 18  2  0  0  0  0
 17 45  1  0  0  0  0
 17 46  1  0  0  0  0
 17 47  1  0  0  0  0
 18 25  1  0  0  0  0
 19 20  1  0  0  0  0
 20 21  2  0  0  0  0
 20 25  1  0  0  0  0
 21 22  1  0  0  0  0
 21 48  1  0  0  0  0
 22 23  2  0  0  0  0
 22 26  1  0  0  0  0
 23 24  1  0  0  0  0
 23 49  1  0  0  0  0
 24 25  2  0  0  0  0
 24 50  1  0  0  0  0
 26 27  1  0  0  0  0
 26 51  1  0  0  0  0
 26 52  1  0  0  0  0
 27 28  1  0  0  0  0
 27 32  1  0  0  0  0
 28 29  1  0  0  0  0
 28 53  1  0  0  0  0
 28 54  1  0  0  0  0
 29 30  1  0  0  0  0
 29 55  1  0  0  0  0
 29 56  1  0  0  0  0
 30 31  1  0  0  0  0
 31 32  1  0  0  0  0
 31 57  1  0  0  0  0
 31 58  1  0  0  0  0
 32 59  1  0  0  0  0
 32 60  1  0  0  0  0
M  END
$$$$
