lig_18633-1
     RDKit          3D

 42 43  0  0  0  0  0  0  0  0999 V2000
   24.0390   12.2180   30.2670 C   0  0  0  0  0  0  0  0  0  0  0  0
   23.3040   10.9020   30.5330 C   0  0  0  0  0  0  0  0  0  0  0  0
   22.1560   11.1950   31.3260 O   0  0  0  0  0  0  0  0  0  0  0  0
   21.3390   10.1630   31.7540 C   0  0  0  0  0  0  0  0  0  0  0  0
   21.6820    8.8990   31.3840 N   0  0  0  0  0  0  0  0  0  0  0  0
   20.8870    7.8880   31.7600 C   0  0  0  0  0  0  0  0  0  0  0  0
   19.7520    8.0620   32.5360 C   0  0  0  0  0  0  0  0  0  0  0  0
   19.4080    9.3450   32.9170 C   0  0  0  0  0  0  0  0  0  0  0  0
   18.2520    9.4490   33.6800 N   0  0  0  0  0  0  0  0  0  0  0  0
   20.2030   10.4350   32.5260 C   0  0  0  0  0  0  0  0  0  0  0  0
   19.8910   11.8150   32.8790 C   0  0  0  0  0  0  0  0  0  0  0  0
   19.6510   12.9140   33.1550 N   0  0  0  0  0  0  0  0  0  0  0  0
   21.3750    6.6760   31.3200 N   0  0  0  0  0  0  0  0  0  0  0  0
   20.7390    5.5160   31.1260 C   0  0  0  0  0  0  0  0  0  0  0  0
   19.5240    5.3830   31.2540 O   0  0  0  0  0  0  0  0  0  0  0  0
   21.5740    4.2930   30.7140 C   0  0  0  0  0  0  0  0  0  0  0  0
   23.0750    4.5500   30.5850 C   0  0  0  0  0  0  0  0  0  0  0  0
   23.9620    4.0060   31.5180 C   0  0  0  0  0  0  0  0  0  0  0  0
   25.3280    4.2690   31.4150 C   0  0  0  0  0  0  0  0  0  0  0  0
   25.8300    5.0670   30.3880 C   0  0  0  0  0  0  0  0  0  0  0  0
   24.9360    5.6030   29.4480 C   0  0  0  0  0  0  0  0  0  0  0  0
   23.5700    5.3480   29.5480 C   0  0  0  0  0  0  0  0  0  0  0  0
   27.1930    5.2760   30.3810 O   0  0  0  0  0  0  0  0  0  0  0  0
   27.7620    6.0800   29.3510 C   0  0  0  0  0  0  0  0  0  0  0  0
   24.9290   12.0530   29.6610 H   0  0  0  0  0  0  0  0  0  0  0  0
   23.3960   12.9170   29.7320 H   0  0  0  0  0  0  0  0  0  0  0  0
   24.3450   12.6920   31.1990 H   0  0  0  0  0  0  0  0  0  0  0  0
   23.0080   10.4370   29.5900 H   0  0  0  0  0  0  0  0  0  0  0  0
   23.9670   10.2070   31.0550 H   0  0  0  0  0  0  0  0  0  0  0  0
   19.1470    7.2230   32.8380 H   0  0  0  0  0  0  0  0  0  0  0  0
   17.7770    8.6080   33.9940 H   0  0  0  0  0  0  0  0  0  0  0  0
   17.8830   10.3620   33.9350 H   0  0  0  0  0  0  0  0  0  0  0  0
   22.3610    6.7130   31.1320 H   0  0  0  0  0  0  0  0  0  0  0  0
   21.3860    3.5000   31.4380 H   0  0  0  0  0  0  0  0  0  0  0  0
   21.1950    3.9320   29.7620 H   0  0  0  0  0  0  0  0  0  0  0  0
   23.5980    3.3830   32.3230 H   0  0  0  0  0  0  0  0  0  0  0  0
   26.0140    3.8530   32.1380 H   0  0  0  0  0  0  0  0  0  0  0  0
   25.2870    6.2230   28.6360 H   0  0  0  0  0  0  0  0  0  0  0  0
   22.8920    5.7770   28.8220 H   0  0  0  0  0  0  0  0  0  0  0  0
   28.8350    6.1760   29.5200 H   0  0  0  0  0  0  0  0  0  0  0  0
   27.6210    5.6280   28.3680 H   0  0  0  0  0  0  0  0  0  0  0  0
   27.3420    7.0880   29.3410 H   0  0  0  0  0  0  0  0  0  0  0  0
  1  2  1  0
  1 25  1  0
  1 26  1  0
  1 27  1  0
  2  3  1  0
  2 28  1  0
  2 29  1  0
  3  4  1  0
  4 10  2  0
  4  5  1  0
  5  6  2  0
  6  7  1  0
  6 13  1  0
  7  8  2  0
  7 30  1  0
  8  9  1  0
  8 10  1  0
  9 31  1  0
  9 32  1  0
 10 11  1  0
 11 12  3  0
 13 14  1  0
 13 33  1  0
 14 15  2  0
 14 16  1  0
 16 17  1  0
 16 34  1  0
 16 35  1  0
 17 22  1  0
 17 18  2  0
 18 19  1  0
 18 36  1  0
 19 20  2  0
 19 37  1  0
 20 21  1  0
 20 23  1  0
 21 22  2  0
 21 38  1  0
 22 39  1  0
 23 24  1  0
 24 40  1  0
 24 41  1  0
 24 42  1  0
M  END
$$$$
