
 OpenBabel06282218343D

 56 59  0  0  0  0  0  0  0  0999 V2000
   -3.3682   -0.1262   -0.1477 N   0  0  0  0  0  0  0  0  0  0  0  0
   -2.2083   -0.1198   -0.1923 C   0  0  0  0  0  0  0  0  0  0  0  0
   -0.7766   -0.1056   -0.2227 C   0  0  0  0  0  0  0  0  0  0  0  0
   -0.0828    1.0298   -0.6247 C   0  0  0  0  0  0  0  0  0  0  0  0
    1.3223    1.0450   -0.6092 C   0  0  0  0  0  0  0  0  0  0  0  0
    2.0811   -0.0332   -0.1250 C   0  0  0  0  0  0  0  0  0  0  0  0
    3.5310    0.0226    0.0048 N   0  0  0  0  0  0  0  0  0  0  0  0
    4.3243    1.2024   -0.0890 C   0  0  0  0  0  0  0  0  0  0  0  0
    5.5210    1.1128   -0.3764 O   0  0  0  0  0  0  0  0  0  0  0  0
    3.7664    2.5071    0.2256 C   0  0  0  0  0  0  0  0  0  0  0  0
    2.9406    2.9864    1.2292 C   0  0  0  0  0  0  0  0  0  0  0  0
    2.7348    4.3655    0.9709 C   0  0  0  0  0  0  0  0  0  0  0  0
    3.4633    4.6558   -0.1563 C   0  0  0  0  0  0  0  0  0  0  0  0
    4.1029    3.5474   -0.6036 O   0  0  0  0  0  0  0  0  0  0  0  0
    4.3230   -1.2544    0.0530 C   0  0  0  0  0  0  0  0  0  0  0  0
    4.0520   -2.0661    1.3629 C   0  0  0  0  0  0  0  0  0  0  0  0
    3.6302   -3.2290    1.3696 O   0  0  0  0  0  0  0  0  0  0  0  0
    4.2864   -1.5570    2.6013 N   0  0  0  0  0  0  0  0  0  0  0  0
    4.9674   -0.3564    3.0522 C   0  0  0  0  0  0  0  0  0  0  0  0
    4.0649    0.5219    3.9299 C   0  0  0  0  0  0  0  0  0  0  0  0
    3.7278    0.0675    5.3380 C   0  0  0  0  0  0  0  0  0  0  0  0
    3.9960   -1.2107    5.8495 C   0  0  0  0  0  0  0  0  0  0  0  0
    3.5874   -1.5747    7.1393 C   0  0  0  0  0  0  0  0  0  0  0  0
    2.9277   -0.6569    7.9504 C   0  0  0  0  0  0  0  0  0  0  0  0
    2.6810    0.6182    7.4648 C   0  0  0  0  0  0  0  0  0  0  0  0
    2.0593    1.5127    8.2441 F   0  0  0  0  0  0  0  0  0  0  0  0
    3.0649    0.9821    6.1762 C   0  0  0  0  0  0  0  0  0  0  0  0
    4.2627   -2.0679   -1.2510 C   0  0  0  0  0  0  0  0  0  0  0  0
    4.6288   -3.4215   -1.3131 C   0  0  0  0  0  0  0  0  0  0  0  0
    4.5476   -4.1289   -2.5111 C   0  0  0  0  0  0  0  0  0  0  0  0
    4.1404   -3.4526   -3.6434 C   0  0  0  0  0  0  0  0  0  0  0  0
    3.8426   -2.1392   -3.6542 N   0  0  0  0  0  0  0  0  0  0  0  0
    3.9264   -1.4812   -2.4715 C   0  0  0  0  0  0  0  0  0  0  0  0
    1.3506   -1.1958    0.1709 C   0  0  0  0  0  0  0  0  0  0  0  0
   -0.0523   -1.2340    0.1382 C   0  0  0  0  0  0  0  0  0  0  0  0
   -0.6198    1.9148   -0.9624 H   0  0  0  0  0  0  0  0  0  0  0  0
    1.7821    1.9355   -1.0265 H   0  0  0  0  0  0  0  0  0  0  0  0
    2.5133    2.4100    2.0357 H   0  0  0  0  0  0  0  0  0  0  0  0
    2.1287    5.0624    1.5333 H   0  0  0  0  0  0  0  0  0  0  0  0
    3.6231    5.5537   -0.7383 H   0  0  0  0  0  0  0  0  0  0  0  0
    5.3907   -1.0136    0.1449 H   0  0  0  0  0  0  0  0  0  0  0  0
    4.0437   -2.2425    3.3057 H   0  0  0  0  0  0  0  0  0  0  0  0
    5.8566   -0.6753    3.6065 H   0  0  0  0  0  0  0  0  0  0  0  0
    5.3133    0.2111    2.1885 H   0  0  0  0  0  0  0  0  0  0  0  0
    4.5503    1.5030    4.0133 H   0  0  0  0  0  0  0  0  0  0  0  0
    3.1120    0.6684    3.4066 H   0  0  0  0  0  0  0  0  0  0  0  0
    4.5278   -1.9593    5.2722 H   0  0  0  0  0  0  0  0  0  0  0  0
    3.7867   -2.5784    7.5083 H   0  0  0  0  0  0  0  0  0  0  0  0
    2.6095   -0.9254    8.9523 H   0  0  0  0  0  0  0  0  0  0  0  0
    2.8386    1.9894    5.8365 H   0  0  0  0  0  0  0  0  0  0  0  0
    4.9706   -3.9582   -0.4310 H   0  0  0  0  0  0  0  0  0  0  0  0
    4.7947   -5.1839   -2.5530 H   0  0  0  0  0  0  0  0  0  0  0  0
    4.0493   -3.9603   -4.5989 H   0  0  0  0  0  0  0  0  0  0  0  0
    3.7027   -0.4214   -2.5578 H   0  0  0  0  0  0  0  0  0  0  0  0
    1.8167   -2.1345    0.4379 H   0  0  0  0  0  0  0  0  0  0  0  0
   -0.5609   -2.1599    0.4037 H   0  0  0  0  0  0  0  0  0  0  0  0
  1  2  3  0  0  0  0
  2  3  1  0  0  0  0
  3  4  1  0  0  0  0
  3 35  2  0  0  0  0
  4  5  2  0  0  0  0
  4 36  1  0  0  0  0
  5  6  1  0  0  0  0
  5 37  1  0  0  0  0
  6  7  1  0  0  0  0
  6 34  2  0  0  0  0
  7  8  1  0  0  0  0
  7 15  1  0  0  0  0
  8  9  2  0  0  0  0
  8 10  1  0  0  0  0
 10 11  2  0  0  0  0
 10 14  1  0  0  0  0
 11 12  1  0  0  0  0
 11 38  1  0  0  0  0
 12 13  2  0  0  0  0
 12 39  1  0  0  0  0
 13 14  1  0  0  0  0
 13 40  1  0  0  0  0
 15 16  1  0  0  0  0
 15 28  1  0  0  0  0
 15 41  1  0  0  0  0
 16 17  2  0  0  0  0
 16 18  1  0  0  0  0
 18 19  1  0  0  0  0
 18 42  1  0  0  0  0
 19 20  1  0  0  0  0
 19 43  1  0  0  0  0
 19 44  1  0  0  0  0
 20 21  1  0  0  0  0
 20 45  1  0  0  0  0
 20 46  1  0  0  0  0
 21 22  1  0  0  0  0
 21 27  2  0  0  0  0
 22 23  2  0  0  0  0
 22 47  1  0  0  0  0
 23 24  1  0  0  0  0
 23 48  1  0  0  0  0
 24 25  2  0  0  0  0
 24 49  1  0  0  0  0
 25 26  1  0  0  0  0
 25 27  1  0  0  0  0
 27 50  1  0  0  0  0
 28 29  1  0  0  0  0
 28 33  2  0  0  0  0
 29 30  2  0  0  0  0
 29 51  1  0  0  0  0
 30 31  1  0  0  0  0
 30 52  1  0  0  0  0
 31 32  2  0  0  0  0
 31 53  1  0  0  0  0
 32 33  1  0  0  0  0
 33 54  1  0  0  0  0
 34 35  1  0  0  0  0
 34 55  1  0  0  0  0
 35 56  1  0  0  0  0
M  END
$$$$
