
 OpenBabel06282218353D

 66 69  0  0  0  0  0  0  0  0999 V2000
    0.8549   -0.4727   -0.2230 C   0  0  0  0  0  0  0  0  0  0  0  0
    0.4159    0.4354   -1.3938 C   0  0  0  0  0  0  0  0  0  0  0  0
    0.9114   -0.2225   -2.6988 C   0  0  0  0  0  0  0  0  0  0  0  0
   -1.1287    0.4608   -1.3923 C   0  0  0  0  0  0  0  0  0  0  0  0
    0.9626    1.8694   -1.3047 C   0  0  0  0  0  0  0  0  0  0  0  0
    1.8266    2.2943   -0.2909 C   0  0  0  0  0  0  0  0  0  0  0  0
    2.2959    3.6168   -0.2367 C   0  0  0  0  0  0  0  0  0  0  0  0
    1.9352    4.5749   -1.1980 C   0  0  0  0  0  0  0  0  0  0  0  0
    2.3769    5.9432   -1.0700 N   0  0  0  0  0  0  0  0  0  0  0  0
    3.5524    6.3019   -0.3584 C   0  0  0  0  0  0  0  0  0  0  0  0
    3.6153    7.3771    0.2456 O   0  0  0  0  0  0  0  0  0  0  0  0
    4.7254    5.4327   -0.4734 C   0  0  0  0  0  0  0  0  0  0  0  0
    5.0009    4.5832   -1.4515 N   0  0  0  0  0  0  0  0  0  0  0  0
    6.2181    4.0567   -1.1016 C   0  0  0  0  0  0  0  0  0  0  0  0
    6.6515    4.6220    0.0699 C   0  0  0  0  0  0  0  0  0  0  0  0
    5.7113    5.5162    0.4804 O   0  0  0  0  0  0  0  0  0  0  0  0
    1.4780    7.0739   -1.4216 C   0  0  0  0  0  0  0  0  0  0  0  0
    1.0222    7.1658   -2.9038 C   0  0  0  0  0  0  0  0  0  0  0  0
   -0.1651    7.2176   -3.2369 O   0  0  0  0  0  0  0  0  0  0  0  0
    1.9435    7.2684   -3.9095 N   0  0  0  0  0  0  0  0  0  0  0  0
    3.3961    7.3022   -3.8599 C   0  0  0  0  0  0  0  0  0  0  0  0
    4.0325    6.0145   -4.3980 C   0  0  0  0  0  0  0  0  0  0  0  0
    3.7392    5.6674   -5.8433 C   0  0  0  0  0  0  0  0  0  0  0  0
    3.6231    6.6380   -6.8509 C   0  0  0  0  0  0  0  0  0  0  0  0
    3.3811    6.2682   -8.1787 C   0  0  0  0  0  0  0  0  0  0  0  0
    3.2751    4.9226   -8.5207 C   0  0  0  0  0  0  0  0  0  0  0  0
    3.4147    3.9573   -7.5331 C   0  0  0  0  0  0  0  0  0  0  0  0
    3.3311    2.6613   -7.8614 F   0  0  0  0  0  0  0  0  0  0  0  0
    3.6468    4.3147   -6.2081 C   0  0  0  0  0  0  0  0  0  0  0  0
    0.3475    7.3530   -0.4292 C   0  0  0  0  0  0  0  0  0  0  0  0
   -0.2793    6.3955    0.3737 C   0  0  0  0  0  0  0  0  0  0  0  0
   -1.3085    6.7681    1.2381 C   0  0  0  0  0  0  0  0  0  0  0  0
   -1.6930    8.0958    1.2744 C   0  0  0  0  0  0  0  0  0  0  0  0
   -1.1280    9.0545    0.5161 N   0  0  0  0  0  0  0  0  0  0  0  0
   -0.1350    8.6610   -0.3158 C   0  0  0  0  0  0  0  0  0  0  0  0
    1.0666    4.1509   -2.2055 C   0  0  0  0  0  0  0  0  0  0  0  0
    0.5994    2.8279   -2.2624 C   0  0  0  0  0  0  0  0  0  0  0  0
    0.4313   -1.4792   -0.3232 H   0  0  0  0  0  0  0  0  0  0  0  0
    0.5190   -0.0755    0.7422 H   0  0  0  0  0  0  0  0  0  0  0  0
    1.9446   -0.5856   -0.1852 H   0  0  0  0  0  0  0  0  0  0  0  0
    0.5578   -1.2570   -2.7790 H   0  0  0  0  0  0  0  0  0  0  0  0
    0.5576    0.3087   -3.5894 H   0  0  0  0  0  0  0  0  0  0  0  0
    2.0070   -0.2400   -2.7405 H   0  0  0  0  0  0  0  0  0  0  0  0
   -1.5141    0.9623   -0.4965 H   0  0  0  0  0  0  0  0  0  0  0  0
   -1.5369    0.9840   -2.2638 H   0  0  0  0  0  0  0  0  0  0  0  0
   -1.5408   -0.5550   -1.4092 H   0  0  0  0  0  0  0  0  0  0  0  0
    2.1518    1.6193    0.4962 H   0  0  0  0  0  0  0  0  0  0  0  0
    2.9138    3.8747    0.6195 H   0  0  0  0  0  0  0  0  0  0  0  0
    6.7129    3.3101   -1.7075 H   0  0  0  0  0  0  0  0  0  0  0  0
    7.5260    4.5182    0.6953 H   0  0  0  0  0  0  0  0  0  0  0  0
    2.1034    7.9764   -1.3405 H   0  0  0  0  0  0  0  0  0  0  0  0
    1.5120    7.3165   -4.8269 H   0  0  0  0  0  0  0  0  0  0  0  0
    3.7105    8.1720   -4.4453 H   0  0  0  0  0  0  0  0  0  0  0  0
    3.7335    7.4812   -2.8383 H   0  0  0  0  0  0  0  0  0  0  0  0
    5.1215    6.0840   -4.2872 H   0  0  0  0  0  0  0  0  0  0  0  0
    3.6966    5.1825   -3.7685 H   0  0  0  0  0  0  0  0  0  0  0  0
    3.7230    7.6970   -6.6264 H   0  0  0  0  0  0  0  0  0  0  0  0
    3.2832    7.0321   -8.9464 H   0  0  0  0  0  0  0  0  0  0  0  0
    3.0937    4.6212   -9.5471 H   0  0  0  0  0  0  0  0  0  0  0  0
    3.7568    3.5265   -5.4677 H   0  0  0  0  0  0  0  0  0  0  0  0
    0.0033    5.3499    0.3496 H   0  0  0  0  0  0  0  0  0  0  0  0
   -1.8007    6.0339    1.8660 H   0  0  0  0  0  0  0  0  0  0  0  0
   -2.4905    8.4314    1.9304 H   0  0  0  0  0  0  0  0  0  0  0  0
    0.2782    9.4687   -0.9161 H   0  0  0  0  0  0  0  0  0  0  0  0
    0.7300    4.7994   -3.0036 H   0  0  0  0  0  0  0  0  0  0  0  0
   -0.0657    2.5636   -3.0833 H   0  0  0  0  0  0  0  0  0  0  0  0
  1  2  1  0  0  0  0
  1 38  1  0  0  0  0
  1 39  1  0  0  0  0
  1 40  1  0  0  0  0
  2  3  1  0  0  0  0
  2  4  1  0  0  0  0
  2  5  1  0  0  0  0
  3 41  1  0  0  0  0
  3 42  1  0  0  0  0
  3 43  1  0  0  0  0
  4 44  1  0  0  0  0
  4 45  1  0  0  0  0
  4 46  1  0  0  0  0
  5  6  1  0  0  0  0
  5 37  2  0  0  0  0
  6  7  2  0  0  0  0
  6 47  1  0  0  0  0
  7  8  1  0  0  0  0
  7 48  1  0  0  0  0
  8  9  1  0  0  0  0
  8 36  2  0  0  0  0
  9 10  1  0  0  0  0
  9 17  1  0  0  0  0
 10 11  2  0  0  0  0
 10 12  1  0  0  0  0
 12 13  2  0  0  0  0
 12 16  1  0  0  0  0
 13 14  1  0  0  0  0
 14 15  2  0  0  0  0
 14 49  1  0  0  0  0
 15 16  1  0  0  0  0
 15 50  1  0  0  0  0
 17 18  1  0  0  0  0
 17 30  1  0  0  0  0
 17 51  1  0  0  0  0
 18 19  2  0  0  0  0
 18 20  1  0  0  0  0
 20 21  1  0  0  0  0
 20 52  1  0  0  0  0
 21 22  1  0  0  0  0
 21 53  1  0  0  0  0
 21 54  1  0  0  0  0
 22 23  1  0  0  0  0
 22 55  1  0  0  0  0
 22 56  1  0  0  0  0
 23 24  1  0  0  0  0
 23 29  2  0  0  0  0
 24 25  2  0  0  0  0
 24 57  1  0  0  0  0
 25 26  1  0  0  0  0
 25 58  1  0  0  0  0
 26 27  2  0  0  0  0
 26 59  1  0  0  0  0
 27 28  1  0  0  0  0
 27 29  1  0  0  0  0
 29 60  1  0  0  0  0
 30 31  1  0  0  0  0
 30 35  2  0  0  0  0
 31 32  2  0  0  0  0
 31 61  1  0  0  0  0
 32 33  1  0  0  0  0
 32 62  1  0  0  0  0
 33 34  2  0  0  0  0
 33 63  1  0  0  0  0
 34 35  1  0  0  0  0
 35 64  1  0  0  0  0
 36 37  1  0  0  0  0
 36 65  1  0  0  0  0
 37 66  1  0  0  0  0
M  END
$$$$
