
 OpenBabel06282218353D

 66 69  0  0  0  0  0  0  0  0999 V2000
    0.9128   -0.0993    0.3466 C   0  0  0  0  0  0  0  0  0  0  0  0
    0.4285   -0.7789   -0.9486 C   0  0  0  0  0  0  0  0  0  0  0  0
    0.9755   -2.2244   -0.9741 C   0  0  0  0  0  0  0  0  0  0  0  0
   -1.1136   -0.8945   -0.9065 C   0  0  0  0  0  0  0  0  0  0  0  0
    0.9013    0.0622   -2.1445 C   0  0  0  0  0  0  0  0  0  0  0  0
    2.0675   -0.2301   -2.8562 C   0  0  0  0  0  0  0  0  0  0  0  0
    2.4883    0.5618   -3.9405 C   0  0  0  0  0  0  0  0  0  0  0  0
    1.7561    1.6677   -4.3938 C   0  0  0  0  0  0  0  0  0  0  0  0
    2.2007    2.4841   -5.5117 N   0  0  0  0  0  0  0  0  0  0  0  0
    3.2472    2.1219   -6.4082 C   0  0  0  0  0  0  0  0  0  0  0  0
    3.9451    3.0064   -6.9178 O   0  0  0  0  0  0  0  0  0  0  0  0
    3.4129    0.7207   -6.8067 C   0  0  0  0  0  0  0  0  0  0  0  0
    2.4337   -0.1625   -6.8772 N   0  0  0  0  0  0  0  0  0  0  0  0
    2.9425   -1.3874   -7.2661 C   0  0  0  0  0  0  0  0  0  0  0  0
    4.2965   -1.4178   -7.5189 C   0  0  0  0  0  0  0  0  0  0  0  0
    4.9636    0.1419   -7.2800 S   0  0  0  0  0  0  0  0  0  0  0  0
    1.7370    3.8957   -5.6438 C   0  0  0  0  0  0  0  0  0  0  0  0
    0.1973    4.0514   -5.8678 C   0  0  0  0  0  0  0  0  0  0  0  0
   -0.5083    4.8075   -5.1898 O   0  0  0  0  0  0  0  0  0  0  0  0
   -0.4477    3.4158   -6.8871 N   0  0  0  0  0  0  0  0  0  0  0  0
    0.0500    2.5853   -7.9698 C   0  0  0  0  0  0  0  0  0  0  0  0
   -0.4426    1.1358   -7.8735 C   0  0  0  0  0  0  0  0  0  0  0  0
   -1.9320    0.8735   -7.9943 C   0  0  0  0  0  0  0  0  0  0  0  0
   -2.8633    1.8134   -8.4618 C   0  0  0  0  0  0  0  0  0  0  0  0
   -4.2261    1.4996   -8.5372 C   0  0  0  0  0  0  0  0  0  0  0  0
   -4.6741    0.2328   -8.1728 C   0  0  0  0  0  0  0  0  0  0  0  0
   -3.7556   -0.7120   -7.7385 C   0  0  0  0  0  0  0  0  0  0  0  0
   -4.1784   -1.9383   -7.4038 F   0  0  0  0  0  0  0  0  0  0  0  0
   -2.4010   -0.4052   -7.6469 C   0  0  0  0  0  0  0  0  0  0  0  0
    2.3296    4.8679   -4.6137 C   0  0  0  0  0  0  0  0  0  0  0  0
    2.0105    6.2355   -4.6519 C   0  0  0  0  0  0  0  0  0  0  0  0
    2.5636    7.1221   -3.7307 C   0  0  0  0  0  0  0  0  0  0  0  0
    3.4512    6.6244   -2.7971 C   0  0  0  0  0  0  0  0  0  0  0  0
    3.8193    5.3302   -2.7388 N   0  0  0  0  0  0  0  0  0  0  0  0
    3.2594    4.4916   -3.6463 C   0  0  0  0  0  0  0  0  0  0  0  0
    0.6310    1.9940   -3.6285 C   0  0  0  0  0  0  0  0  0  0  0  0
    0.2126    1.2139   -2.5368 C   0  0  0  0  0  0  0  0  0  0  0  0
    0.5996   -0.6649    1.2316 H   0  0  0  0  0  0  0  0  0  0  0  0
    0.5111    0.9161    0.4444 H   0  0  0  0  0  0  0  0  0  0  0  0
    2.0063   -0.0219    0.3706 H   0  0  0  0  0  0  0  0  0  0  0  0
    0.5545   -2.8211   -0.1560 H   0  0  0  0  0  0  0  0  0  0  0  0
    0.7235   -2.7285   -1.9145 H   0  0  0  0  0  0  0  0  0  0  0  0
    2.0638   -2.2555   -0.8524 H   0  0  0  0  0  0  0  0  0  0  0  0
   -1.5994    0.0676   -0.7124 H   0  0  0  0  0  0  0  0  0  0  0  0
   -1.5071   -1.2845   -1.8526 H   0  0  0  0  0  0  0  0  0  0  0  0
   -1.4383   -1.5704   -0.1065 H   0  0  0  0  0  0  0  0  0  0  0  0
    2.6985   -1.0713   -2.5814 H   0  0  0  0  0  0  0  0  0  0  0  0
    3.4396    0.2797   -4.3768 H   0  0  0  0  0  0  0  0  0  0  0  0
    2.2751   -2.2371   -7.3492 H   0  0  0  0  0  0  0  0  0  0  0  0
    4.9072   -2.2533   -7.8302 H   0  0  0  0  0  0  0  0  0  0  0  0
    2.1320    4.2799   -6.5962 H   0  0  0  0  0  0  0  0  0  0  0  0
   -1.4421    3.6133   -6.8772 H   0  0  0  0  0  0  0  0  0  0  0  0
   -0.2861    3.0473   -8.9042 H   0  0  0  0  0  0  0  0  0  0  0  0
    1.1395    2.6112   -7.9867 H   0  0  0  0  0  0  0  0  0  0  0  0
    0.0531    0.5575   -8.6635 H   0  0  0  0  0  0  0  0  0  0  0  0
   -0.1137    0.7293   -6.9092 H   0  0  0  0  0  0  0  0  0  0  0  0
   -2.5573    2.8076   -8.7757 H   0  0  0  0  0  0  0  0  0  0  0  0
   -4.9369    2.2460   -8.8840 H   0  0  0  0  0  0  0  0  0  0  0  0
   -5.7266   -0.0244   -8.2293 H   0  0  0  0  0  0  0  0  0  0  0  0
   -1.7153   -1.1737   -7.2994 H   0  0  0  0  0  0  0  0  0  0  0  0
    1.3142    6.6244   -5.3923 H   0  0  0  0  0  0  0  0  0  0  0  0
    2.3035    8.1743   -3.7428 H   0  0  0  0  0  0  0  0  0  0  0  0
    3.9066    7.2714   -2.0536 H   0  0  0  0  0  0  0  0  0  0  0  0
    3.6192    3.4720   -3.5535 H   0  0  0  0  0  0  0  0  0  0  0  0
    0.0200    2.8667   -3.8146 H   0  0  0  0  0  0  0  0  0  0  0  0
   -0.6676    1.5512   -1.9939 H   0  0  0  0  0  0  0  0  0  0  0  0
  1  2  1  0  0  0  0
  1 38  1  0  0  0  0
  1 39  1  0  0  0  0
  1 40  1  0  0  0  0
  2  3  1  0  0  0  0
  2  4  1  0  0  0  0
  2  5  1  0  0  0  0
  3 41  1  0  0  0  0
  3 42  1  0  0  0  0
  3 43  1  0  0  0  0
  4 44  1  0  0  0  0
  4 45  1  0  0  0  0
  4 46  1  0  0  0  0
  5  6  1  0  0  0  0
  5 37  2  0  0  0  0
  6  7  2  0  0  0  0
  6 47  1  0  0  0  0
  7  8  1  0  0  0  0
  7 48  1  0  0  0  0
  8  9  1  0  0  0  0
  8 36  2  0  0  0  0
  9 10  1  0  0  0  0
  9 17  1  0  0  0  0
 10 11  2  0  0  0  0
 10 12  1  0  0  0  0
 12 13  2  0  0  0  0
 12 16  1  0  0  0  0
 13 14  1  0  0  0  0
 14 15  2  0  0  0  0
 14 49  1  0  0  0  0
 15 16  1  0  0  0  0
 15 50  1  0  0  0  0
 17 18  1  0  0  0  0
 17 30  1  0  0  0  0
 17 51  1  0  0  0  0
 18 19  2  0  0  0  0
 18 20  1  0  0  0  0
 20 21  1  0  0  0  0
 20 52  1  0  0  0  0
 21 22  1  0  0  0  0
 21 53  1  0  0  0  0
 21 54  1  0  0  0  0
 22 23  1  0  0  0  0
 22 55  1  0  0  0  0
 22 56  1  0  0  0  0
 23 24  1  0  0  0  0
 23 29  2  0  0  0  0
 24 25  2  0  0  0  0
 24 57  1  0  0  0  0
 25 26  1  0  0  0  0
 25 58  1  0  0  0  0
 26 27  2  0  0  0  0
 26 59  1  0  0  0  0
 27 28  1  0  0  0  0
 27 29  1  0  0  0  0
 29 60  1  0  0  0  0
 30 31  1  0  0  0  0
 30 35  2  0  0  0  0
 31 32  2  0  0  0  0
 31 61  1  0  0  0  0
 32 33  1  0  0  0  0
 32 62  1  0  0  0  0
 33 34  2  0  0  0  0
 33 63  1  0  0  0  0
 34 35  1  0  0  0  0
 35 64  1  0  0  0  0
 36 37  1  0  0  0  0
 36 65  1  0  0  0  0
 37 66  1  0  0  0  0
M  END
$$$$
