
 OpenBabel06282218353D

 69 72  0  0  0  0  0  0  0  0999 V2000
    0.8633    0.2415    0.0190 C   0  0  0  0  0  0  0  0  0  0  0  0
    0.2643    0.0405    1.4276 C   0  0  0  0  0  0  0  0  0  0  0  0
    0.8007    1.1425    2.3675 C   0  0  0  0  0  0  0  0  0  0  0  0
   -1.2631    0.2469    1.3163 C   0  0  0  0  0  0  0  0  0  0  0  0
    0.6663   -1.3530    1.9409 C   0  0  0  0  0  0  0  0  0  0  0  0
   -0.2572   -2.3894    2.1280 C   0  0  0  0  0  0  0  0  0  0  0  0
    0.1499   -3.6633    2.5513 C   0  0  0  0  0  0  0  0  0  0  0  0
    1.4983   -3.9575    2.7834 C   0  0  0  0  0  0  0  0  0  0  0  0
    1.9184   -5.2809    3.1477 N   0  0  0  0  0  0  0  0  0  0  0  0
    1.2700   -6.4546    2.6903 C   0  0  0  0  0  0  0  0  0  0  0  0
    1.3998   -7.5382    3.2641 O   0  0  0  0  0  0  0  0  0  0  0  0
    0.4879   -6.4559    1.4059 C   0  0  0  0  0  0  0  0  0  0  0  0
    0.9614   -5.8297    0.2571 C   0  0  0  0  0  0  0  0  0  0  0  0
    0.2089   -5.9235   -0.9111 C   0  0  0  0  0  0  0  0  0  0  0  0
   -0.9787   -6.6453   -0.9009 C   0  0  0  0  0  0  0  0  0  0  0  0
   -1.3721   -7.2455    0.2835 C   0  0  0  0  0  0  0  0  0  0  0  0
   -0.6694   -7.1684    1.4331 N   0  0  0  0  0  0  0  0  0  0  0  0
    2.7806   -5.4367    4.3584 C   0  0  0  0  0  0  0  0  0  0  0  0
    4.2502   -4.9405    4.2342 C   0  0  0  0  0  0  0  0  0  0  0  0
    4.7405   -4.0693    4.9573 O   0  0  0  0  0  0  0  0  0  0  0  0
    5.1007   -5.5055    3.3241 N   0  0  0  0  0  0  0  0  0  0  0  0
    4.8678   -6.5327    2.3239 C   0  0  0  0  0  0  0  0  0  0  0  0
    4.7697   -5.9406    0.9150 C   0  0  0  0  0  0  0  0  0  0  0  0
    6.0552   -5.3065    0.4378 C   0  0  0  0  0  0  0  0  0  0  0  0
    7.1523   -6.1010    0.0720 C   0  0  0  0  0  0  0  0  0  0  0  0
    8.3453   -5.5123   -0.3566 C   0  0  0  0  0  0  0  0  0  0  0  0
    8.4518   -4.1246   -0.4269 C   0  0  0  0  0  0  0  0  0  0  0  0
    7.3650   -3.3373   -0.0688 C   0  0  0  0  0  0  0  0  0  0  0  0
    7.4646   -2.0034   -0.1388 F   0  0  0  0  0  0  0  0  0  0  0  0
    6.1733   -3.9118    0.3623 C   0  0  0  0  0  0  0  0  0  0  0  0
    2.0482   -5.0118    5.6316 C   0  0  0  0  0  0  0  0  0  0  0  0
    1.2218   -5.9255    6.3041 C   0  0  0  0  0  0  0  0  0  0  0  0
    0.5446   -5.5425    7.4584 C   0  0  0  0  0  0  0  0  0  0  0  0
    0.7001   -4.2438    7.9066 C   0  0  0  0  0  0  0  0  0  0  0  0
    1.4625   -3.3244    7.2815 N   0  0  0  0  0  0  0  0  0  0  0  0
    2.1131   -3.7255    6.1616 C   0  0  0  0  0  0  0  0  0  0  0  0
    2.4195   -2.9192    2.6392 C   0  0  0  0  0  0  0  0  0  0  0  0
    2.0116   -1.6453    2.2200 C   0  0  0  0  0  0  0  0  0  0  0  0
    0.5851    1.2178   -0.3945 H   0  0  0  0  0  0  0  0  0  0  0  0
    0.5067   -0.5287   -0.6755 H   0  0  0  0  0  0  0  0  0  0  0  0
    1.9581    0.1926    0.0272 H   0  0  0  0  0  0  0  0  0  0  0  0
    0.4723    2.1357    2.0387 H   0  0  0  0  0  0  0  0  0  0  0  0
    0.4429    0.9951    3.3931 H   0  0  0  0  0  0  0  0  0  0  0  0
    1.8952    1.1680    2.3988 H   0  0  0  0  0  0  0  0  0  0  0  0
   -1.7155   -0.4470    0.5984 H   0  0  0  0  0  0  0  0  0  0  0  0
   -1.7582    0.1081    2.2844 H   0  0  0  0  0  0  0  0  0  0  0  0
   -1.5007    1.2604    0.9713 H   0  0  0  0  0  0  0  0  0  0  0  0
   -1.3196   -2.2410    1.9531 H   0  0  0  0  0  0  0  0  0  0  0  0
   -0.6260   -4.4079    2.7192 H   0  0  0  0  0  0  0  0  0  0  0  0
    1.8875   -5.2722    0.2549 H   0  0  0  0  0  0  0  0  0  0  0  0
    0.5493   -5.4395   -1.8227 H   0  0  0  0  0  0  0  0  0  0  0  0
   -1.5832   -6.7411   -1.7965 H   0  0  0  0  0  0  0  0  0  0  0  0
   -2.2896   -7.8252    0.3397 H   0  0  0  0  0  0  0  0  0  0  0  0
    2.9513   -6.5122    4.5106 H   0  0  0  0  0  0  0  0  0  0  0  0
    6.0326   -5.1048    3.3613 H   0  0  0  0  0  0  0  0  0  0  0  0
    5.7056   -7.2349    2.3935 H   0  0  0  0  0  0  0  0  0  0  0  0
    3.9601   -7.0878    2.5603 H   0  0  0  0  0  0  0  0  0  0  0  0
    4.4804   -6.7240    0.2040 H   0  0  0  0  0  0  0  0  0  0  0  0
    3.9756   -5.1883    0.8900 H   0  0  0  0  0  0  0  0  0  0  0  0
    7.0860   -7.1865    0.1171 H   0  0  0  0  0  0  0  0  0  0  0  0
    9.1905   -6.1365   -0.6360 H   0  0  0  0  0  0  0  0  0  0  0  0
    9.3714   -3.6531   -0.7581 H   0  0  0  0  0  0  0  0  0  0  0  0
    5.3495   -3.2592    0.6363 H   0  0  0  0  0  0  0  0  0  0  0  0
    1.1005   -6.9409    5.9299 H   0  0  0  0  0  0  0  0  0  0  0  0
   -0.0897   -6.2409    7.9920 H   0  0  0  0  0  0  0  0  0  0  0  0
    0.1985   -3.8963    8.8048 H   0  0  0  0  0  0  0  0  0  0  0  0
    2.7060   -2.9413    5.6983 H   0  0  0  0  0  0  0  0  0  0  0  0
    3.4823   -3.0630    2.7959 H   0  0  0  0  0  0  0  0  0  0  0  0
    2.7790   -0.8825    2.0999 H   0  0  0  0  0  0  0  0  0  0  0  0
  1  2  1  0  0  0  0
  1 39  1  0  0  0  0
  1 40  1  0  0  0  0
  1 41  1  0  0  0  0
  2  3  1  0  0  0  0
  2  4  1  0  0  0  0
  2  5  1  0  0  0  0
  3 42  1  0  0  0  0
  3 43  1  0  0  0  0
  3 44  1  0  0  0  0
  4 45  1  0  0  0  0
  4 46  1  0  0  0  0
  4 47  1  0  0  0  0
  5  6  1  0  0  0  0
  5 38  2  0  0  0  0
  6  7  2  0  0  0  0
  6 48  1  0  0  0  0
  7  8  1  0  0  0  0
  7 49  1  0  0  0  0
  8  9  1  0  0  0  0
  8 37  2  0  0  0  0
  9 10  1  0  0  0  0
  9 18  1  0  0  0  0
 10 11  2  0  0  0  0
 10 12  1  0  0  0  0
 12 13  1  0  0  0  0
 12 17  2  0  0  0  0
 13 14  2  0  0  0  0
 13 50  1  0  0  0  0
 14 15  1  0  0  0  0
 14 51  1  0  0  0  0
 15 16  2  0  0  0  0
 15 52  1  0  0  0  0
 16 17  1  0  0  0  0
 16 53  1  0  0  0  0
 18 19  1  0  0  0  0
 18 31  1  0  0  0  0
 18 54  1  0  0  0  0
 19 20  2  0  0  0  0
 19 21  1  0  0  0  0
 21 22  1  0  0  0  0
 21 55  1  0  0  0  0
 22 23  1  0  0  0  0
 22 56  1  0  0  0  0
 22 57  1  0  0  0  0
 23 24  1  0  0  0  0
 23 58  1  0  0  0  0
 23 59  1  0  0  0  0
 24 25  1  0  0  0  0
 24 30  2  0  0  0  0
 25 26  2  0  0  0  0
 25 60  1  0  0  0  0
 26 27  1  0  0  0  0
 26 61  1  0  0  0  0
 27 28  2  0  0  0  0
 27 62  1  0  0  0  0
 28 29  1  0  0  0  0
 28 30  1  0  0  0  0
 30 63  1  0  0  0  0
 31 32  1  0  0  0  0
 31 36  2  0  0  0  0
 32 33  2  0  0  0  0
 32 64  1  0  0  0  0
 33 34  1  0  0  0  0
 33 65  1  0  0  0  0
 34 35  2  0  0  0  0
 34 66  1  0  0  0  0
 35 36  1  0  0  0  0
 36 67  1  0  0  0  0
 37 38  1  0  0  0  0
 37 68  1  0  0  0  0
 38 69  1  0  0  0  0
M  END
$$$$
