
 OpenBabel06282218353D

 57 60  0  0  0  0  0  0  0  0999 V2000
    2.9081    0.1811   -0.0811 C   0  0  0  0  0  0  0  0  0  0  0  0
    1.4122    0.1663   -0.1559 C   0  0  0  0  0  0  0  0  0  0  0  0
    0.7338   -0.9210   -0.6974 C   0  0  0  0  0  0  0  0  0  0  0  0
   -0.6697   -0.9489   -0.7233 C   0  0  0  0  0  0  0  0  0  0  0  0
   -1.4525    0.0683   -0.1551 C   0  0  0  0  0  0  0  0  0  0  0  0
   -2.9067    0.0227   -0.1571 N   0  0  0  0  0  0  0  0  0  0  0  0
   -3.6852   -1.1227   -0.4681 C   0  0  0  0  0  0  0  0  0  0  0  0
   -4.8126   -1.0014   -0.9565 O   0  0  0  0  0  0  0  0  0  0  0  0
   -3.2229   -2.4717   -0.1391 C   0  0  0  0  0  0  0  0  0  0  0  0
   -3.7417   -3.6272   -0.6880 C   0  0  0  0  0  0  0  0  0  0  0  0
   -3.1096   -4.6950   -0.1316 O   0  0  0  0  0  0  0  0  0  0  0  0
   -2.2493   -4.1325    0.7580 C   0  0  0  0  0  0  0  0  0  0  0  0
   -2.2717   -2.8194    0.8044 N   0  0  0  0  0  0  0  0  0  0  0  0
   -3.6817    1.3034   -0.1054 C   0  0  0  0  0  0  0  0  0  0  0  0
   -3.6065    2.0171    1.2881 C   0  0  0  0  0  0  0  0  0  0  0  0
   -3.1437    3.1513    1.4507 O   0  0  0  0  0  0  0  0  0  0  0  0
   -4.1137    1.4251    2.4136 N   0  0  0  0  0  0  0  0  0  0  0  0
   -4.8164    0.1648    2.5660 C   0  0  0  0  0  0  0  0  0  0  0  0
   -3.9402   -0.8944    3.2402 C   0  0  0  0  0  0  0  0  0  0  0  0
   -4.4839   -2.3065    3.2769 C   0  0  0  0  0  0  0  0  0  0  0  0
   -3.7434   -3.2810    3.9717 C   0  0  0  0  0  0  0  0  0  0  0  0
   -4.1340   -4.6235    3.9716 C   0  0  0  0  0  0  0  0  0  0  0  0
   -5.2733   -5.0133    3.2743 C   0  0  0  0  0  0  0  0  0  0  0  0
   -6.0160   -4.0557    2.5977 C   0  0  0  0  0  0  0  0  0  0  0  0
   -7.1087   -4.4286    1.9181 F   0  0  0  0  0  0  0  0  0  0  0  0
   -5.6388   -2.7146    2.5967 C   0  0  0  0  0  0  0  0  0  0  0  0
   -3.5058    2.1896   -1.3478 C   0  0  0  0  0  0  0  0  0  0  0  0
   -3.8724    3.5425   -1.3724 C   0  0  0  0  0  0  0  0  0  0  0  0
   -3.7750    4.2839   -2.5496 C   0  0  0  0  0  0  0  0  0  0  0  0
   -3.3369    3.6464   -3.6943 C   0  0  0  0  0  0  0  0  0  0  0  0
   -3.0087    2.3422   -3.7361 N   0  0  0  0  0  0  0  0  0  0  0  0
   -3.1103    1.6507   -2.5746 C   0  0  0  0  0  0  0  0  0  0  0  0
   -0.7425    1.1725    0.3405 C   0  0  0  0  0  0  0  0  0  0  0  0
    0.6604    1.2194    0.3537 C   0  0  0  0  0  0  0  0  0  0  0  0
    3.2416   -0.3451    0.8190 H   0  0  0  0  0  0  0  0  0  0  0  0
    3.3465   -0.3035   -0.9595 H   0  0  0  0  0  0  0  0  0  0  0  0
    3.2910    1.2065   -0.0490 H   0  0  0  0  0  0  0  0  0  0  0  0
    1.2862   -1.7600   -1.1149 H   0  0  0  0  0  0  0  0  0  0  0  0
   -1.1098   -1.8013   -1.2280 H   0  0  0  0  0  0  0  0  0  0  0  0
   -4.5036   -3.8403   -1.4244 H   0  0  0  0  0  0  0  0  0  0  0  0
   -1.6407   -4.8124    1.3369 H   0  0  0  0  0  0  0  0  0  0  0  0
   -4.7519    1.0609   -0.1658 H   0  0  0  0  0  0  0  0  0  0  0  0
   -3.9983    2.0010    3.2405 H   0  0  0  0  0  0  0  0  0  0  0  0
   -5.6956    0.3681    3.1882 H   0  0  0  0  0  0  0  0  0  0  0  0
   -5.1790   -0.1595    1.5923 H   0  0  0  0  0  0  0  0  0  0  0  0
   -3.7448   -0.5722    4.2720 H   0  0  0  0  0  0  0  0  0  0  0  0
   -2.9658   -0.9225    2.7365 H   0  0  0  0  0  0  0  0  0  0  0  0
   -2.8324   -2.9978    4.4975 H   0  0  0  0  0  0  0  0  0  0  0  0
   -3.5401   -5.3631    4.5020 H   0  0  0  0  0  0  0  0  0  0  0  0
   -5.5838   -6.0523    3.2471 H   0  0  0  0  0  0  0  0  0  0  0  0
   -6.2575   -2.0258    2.0317 H   0  0  0  0  0  0  0  0  0  0  0  0
   -4.2455    4.0451   -0.4833 H   0  0  0  0  0  0  0  0  0  0  0  0
   -4.0440    5.3338   -2.5706 H   0  0  0  0  0  0  0  0  0  0  0  0
   -3.2461    4.1790   -4.6359 H   0  0  0  0  0  0  0  0  0  0  0  0
   -2.8646    0.5984   -2.6867 H   0  0  0  0  0  0  0  0  0  0  0  0
   -1.2259    2.0506    0.7439 H   0  0  0  0  0  0  0  0  0  0  0  0
    1.1520    2.0970    0.7691 H   0  0  0  0  0  0  0  0  0  0  0  0
  1  2  1  0  0  0  0
  1 35  1  0  0  0  0
  1 36  1  0  0  0  0
  1 37  1  0  0  0  0
  2  3  1  0  0  0  0
  2 34  2  0  0  0  0
  3  4  2  0  0  0  0
  3 38  1  0  0  0  0
  4  5  1  0  0  0  0
  4 39  1  0  0  0  0
  5  6  1  0  0  0  0
  5 33  2  0  0  0  0
  6  7  1  0  0  0  0
  6 14  1  0  0  0  0
  7  8  2  0  0  0  0
  7  9  1  0  0  0  0
  9 10  2  0  0  0  0
  9 13  1  0  0  0  0
 10 11  1  0  0  0  0
 10 40  1  0  0  0  0
 11 12  1  0  0  0  0
 12 13  2  0  0  0  0
 12 41  1  0  0  0  0
 14 15  1  0  0  0  0
 14 27  1  0  0  0  0
 14 42  1  0  0  0  0
 15 16  2  0  0  0  0
 15 17  1  0  0  0  0
 17 18  1  0  0  0  0
 17 43  1  0  0  0  0
 18 19  1  0  0  0  0
 18 44  1  0  0  0  0
 18 45  1  0  0  0  0
 19 20  1  0  0  0  0
 19 46  1  0  0  0  0
 19 47  1  0  0  0  0
 20 21  1  0  0  0  0
 20 26  2  0  0  0  0
 21 22  2  0  0  0  0
 21 48  1  0  0  0  0
 22 23  1  0  0  0  0
 22 49  1  0  0  0  0
 23 24  2  0  0  0  0
 23 50  1  0  0  0  0
 24 25  1  0  0  0  0
 24 26  1  0  0  0  0
 26 51  1  0  0  0  0
 27 28  1  0  0  0  0
 27 32  2  0  0  0  0
 28 29  2  0  0  0  0
 28 52  1  0  0  0  0
 29 30  1  0  0  0  0
 29 53  1  0  0  0  0
 30 31  2  0  0  0  0
 30 54  1  0  0  0  0
 31 32  1  0  0  0  0
 32 55  1  0  0  0  0
 33 34  1  0  0  0  0
 33 56  1  0  0  0  0
 34 57  1  0  0  0  0
M  END
$$$$
