
 OpenBabel06282218353D

 66 69  0  0  0  0  0  0  0  0999 V2000
    0.9578    0.0085   -0.2281 C   0  0  0  0  0  0  0  0  0  0  0  0
    0.3634    1.4041    0.0630 C   0  0  0  0  0  0  0  0  0  0  0  0
    0.8969    2.3546   -1.0345 C   0  0  0  0  0  0  0  0  0  0  0  0
   -1.1706    1.3451   -0.0743 C   0  0  0  0  0  0  0  0  0  0  0  0
    0.7260    1.8466    1.4885 C   0  0  0  0  0  0  0  0  0  0  0  0
    0.4521    1.0293    2.5928 C   0  0  0  0  0  0  0  0  0  0  0  0
    0.7952    1.4157    3.9003 C   0  0  0  0  0  0  0  0  0  0  0  0
    1.4641    2.6175    4.1688 C   0  0  0  0  0  0  0  0  0  0  0  0
    1.8563    3.0011    5.5125 N   0  0  0  0  0  0  0  0  0  0  0  0
    1.9742    2.1073    6.6123 C   0  0  0  0  0  0  0  0  0  0  0  0
    1.9005    2.5281    7.7696 O   0  0  0  0  0  0  0  0  0  0  0  0
    2.2987    0.6774    6.3925 C   0  0  0  0  0  0  0  0  0  0  0  0
    3.2150    0.1215    5.4271 C   0  0  0  0  0  0  0  0  0  0  0  0
    3.2855   -1.2515    5.5325 C   0  0  0  0  0  0  0  0  0  0  0  0
    2.2522   -1.7487    6.7940 S   0  0  0  0  0  0  0  0  0  0  0  0
    1.7286   -0.2349    7.1928 N   0  0  0  0  0  0  0  0  0  0  0  0
    1.8589    4.4570    5.8866 C   0  0  0  0  0  0  0  0  0  0  0  0
    2.9770    5.2834    5.1725 C   0  0  0  0  0  0  0  0  0  0  0  0
    2.7448    6.3042    4.5152 O   0  0  0  0  0  0  0  0  0  0  0  0
    4.2963    4.9561    5.2632 N   0  0  0  0  0  0  0  0  0  0  0  0
    4.9955    3.9784    6.0778 C   0  0  0  0  0  0  0  0  0  0  0  0
    5.7142    2.9210    5.2286 C   0  0  0  0  0  0  0  0  0  0  0  0
    6.9608    3.3062    4.4566 C   0  0  0  0  0  0  0  0  0  0  0  0
    7.6501    2.2838    3.7741 C   0  0  0  0  0  0  0  0  0  0  0  0
    8.7904    2.5574    3.0117 C   0  0  0  0  0  0  0  0  0  0  0  0
    9.2575    3.8632    2.9098 C   0  0  0  0  0  0  0  0  0  0  0  0
    8.5886    4.8757    3.5834 C   0  0  0  0  0  0  0  0  0  0  0  0
    9.0338    6.1355    3.4865 F   0  0  0  0  0  0  0  0  0  0  0  0
    7.4595    4.6102    4.3582 C   0  0  0  0  0  0  0  0  0  0  0  0
    0.4619    5.1052    5.8734 C   0  0  0  0  0  0  0  0  0  0  0  0
   -0.7297    4.3652    5.8251 C   0  0  0  0  0  0  0  0  0  0  0  0
   -1.9678    5.0065    5.8374 C   0  0  0  0  0  0  0  0  0  0  0  0
   -1.9927    6.3835    5.9374 C   0  0  0  0  0  0  0  0  0  0  0  0
   -0.8832    7.1380    6.0434 N   0  0  0  0  0  0  0  0  0  0  0  0
    0.3060    6.4865    6.0166 C   0  0  0  0  0  0  0  0  0  0  0  0
    1.6617    3.4587    3.0696 C   0  0  0  0  0  0  0  0  0  0  0  0
    1.3077    3.0846    1.7637 C   0  0  0  0  0  0  0  0  0  0  0  0
    0.7618   -0.2965   -1.2627 H   0  0  0  0  0  0  0  0  0  0  0  0
    0.5327   -0.7678    0.4171 H   0  0  0  0  0  0  0  0  0  0  0  0
    2.0443    0.0040   -0.0796 H   0  0  0  0  0  0  0  0  0  0  0  0
    0.6608    1.9759   -2.0360 H   0  0  0  0  0  0  0  0  0  0  0  0
    0.4503    3.3530   -0.9596 H   0  0  0  0  0  0  0  0  0  0  0  0
    1.9865    2.4634   -0.9761 H   0  0  0  0  0  0  0  0  0  0  0  0
   -1.6165    0.6207    0.6163 H   0  0  0  0  0  0  0  0  0  0  0  0
   -1.6237    2.3212    0.1365 H   0  0  0  0  0  0  0  0  0  0  0  0
   -1.4654    1.0528   -1.0887 H   0  0  0  0  0  0  0  0  0  0  0  0
   -0.0535    0.0744    2.4609 H   0  0  0  0  0  0  0  0  0  0  0  0
    0.4706    0.7476    4.6934 H   0  0  0  0  0  0  0  0  0  0  0  0
    3.7696    0.6895    4.6957 H   0  0  0  0  0  0  0  0  0  0  0  0
    3.8670   -1.9560    4.9553 H   0  0  0  0  0  0  0  0  0  0  0  0
    2.1553    4.5434    6.9410 H   0  0  0  0  0  0  0  0  0  0  0  0
    4.8625    5.6143    4.7400 H   0  0  0  0  0  0  0  0  0  0  0  0
    5.7077    4.5266    6.7034 H   0  0  0  0  0  0  0  0  0  0  0  0
    4.2866    3.4939    6.7495 H   0  0  0  0  0  0  0  0  0  0  0  0
    5.9935    2.0992    5.9008 H   0  0  0  0  0  0  0  0  0  0  0  0
    5.0000    2.5256    4.4970 H   0  0  0  0  0  0  0  0  0  0  0  0
    7.2979    1.2548    3.8326 H   0  0  0  0  0  0  0  0  0  0  0  0
    9.3081    1.7525    2.4958 H   0  0  0  0  0  0  0  0  0  0  0  0
   10.1343    4.0984    2.3154 H   0  0  0  0  0  0  0  0  0  0  0  0
    7.0019    5.4498    4.8673 H   0  0  0  0  0  0  0  0  0  0  0  0
   -0.7241    3.2804    5.7811 H   0  0  0  0  0  0  0  0  0  0  0  0
   -2.8902    4.4400    5.7769 H   0  0  0  0  0  0  0  0  0  0  0  0
   -2.9304    6.9306    5.9454 H   0  0  0  0  0  0  0  0  0  0  0  0
    1.1581    7.1535    6.1257 H   0  0  0  0  0  0  0  0  0  0  0  0
    2.1053    4.4412    3.1466 H   0  0  0  0  0  0  0  0  0  0  0  0
    1.5068    3.8077    0.9762 H   0  0  0  0  0  0  0  0  0  0  0  0
  1  2  1  0  0  0  0
  1 38  1  0  0  0  0
  1 39  1  0  0  0  0
  1 40  1  0  0  0  0
  2  3  1  0  0  0  0
  2  4  1  0  0  0  0
  2  5  1  0  0  0  0
  3 41  1  0  0  0  0
  3 42  1  0  0  0  0
  3 43  1  0  0  0  0
  4 44  1  0  0  0  0
  4 45  1  0  0  0  0
  4 46  1  0  0  0  0
  5  6  1  0  0  0  0
  5 37  2  0  0  0  0
  6  7  2  0  0  0  0
  6 47  1  0  0  0  0
  7  8  1  0  0  0  0
  7 48  1  0  0  0  0
  8  9  1  0  0  0  0
  8 36  2  0  0  0  0
  9 10  1  0  0  0  0
  9 17  1  0  0  0  0
 10 11  2  0  0  0  0
 10 12  1  0  0  0  0
 12 13  1  0  0  0  0
 12 16  2  0  0  0  0
 13 14  2  0  0  0  0
 13 49  1  0  0  0  0
 14 15  1  0  0  0  0
 14 50  1  0  0  0  0
 15 16  1  0  0  0  0
 17 18  1  0  0  0  0
 17 30  1  0  0  0  0
 17 51  1  0  0  0  0
 18 19  2  0  0  0  0
 18 20  1  0  0  0  0
 20 21  1  0  0  0  0
 20 52  1  0  0  0  0
 21 22  1  0  0  0  0
 21 53  1  0  0  0  0
 21 54  1  0  0  0  0
 22 23  1  0  0  0  0
 22 55  1  0  0  0  0
 22 56  1  0  0  0  0
 23 24  1  0  0  0  0
 23 29  2  0  0  0  0
 24 25  2  0  0  0  0
 24 57  1  0  0  0  0
 25 26  1  0  0  0  0
 25 58  1  0  0  0  0
 26 27  2  0  0  0  0
 26 59  1  0  0  0  0
 27 28  1  0  0  0  0
 27 29  1  0  0  0  0
 29 60  1  0  0  0  0
 30 31  1  0  0  0  0
 30 35  2  0  0  0  0
 31 32  2  0  0  0  0
 31 61  1  0  0  0  0
 32 33  1  0  0  0  0
 32 62  1  0  0  0  0
 33 34  2  0  0  0  0
 33 63  1  0  0  0  0
 34 35  1  0  0  0  0
 35 64  1  0  0  0  0
 36 37  1  0  0  0  0
 36 65  1  0  0  0  0
 37 66  1  0  0  0  0
M  END
$$$$
