
 OpenBabel06282218353D

 69 72  0  0  0  0  0  0  0  0999 V2000
    1.5666   -0.0452   -0.0039 C   0  0  0  0  0  0  0  0  0  0  0  0
    0.8848   -1.3647   -0.4283 C   0  0  0  0  0  0  0  0  0  0  0  0
    1.4656   -2.4904    0.4515 C   0  0  0  0  0  0  0  0  0  0  0  0
   -0.6473   -1.3385   -0.3286 C   0  0  0  0  0  0  0  0  0  0  0  0
   -1.3595   -0.2175    0.1070 C   0  0  0  0  0  0  0  0  0  0  0  0
   -2.7651   -0.2238    0.2009 C   0  0  0  0  0  0  0  0  0  0  0  0
   -3.5455   -1.3188   -0.1872 C   0  0  0  0  0  0  0  0  0  0  0  0
   -5.0016   -1.3134   -0.1398 N   0  0  0  0  0  0  0  0  0  0  0  0
   -5.8129   -0.1920    0.1653 C   0  0  0  0  0  0  0  0  0  0  0  0
   -6.9147   -0.3319    0.7015 O   0  0  0  0  0  0  0  0  0  0  0  0
   -5.4054    1.1570   -0.2195 C   0  0  0  0  0  0  0  0  0  0  0  0
   -5.7779    2.3065    0.4464 C   0  0  0  0  0  0  0  0  0  0  0  0
   -5.2153    3.3718   -0.1852 O   0  0  0  0  0  0  0  0  0  0  0  0
   -4.5550    2.8158   -1.2364 C   0  0  0  0  0  0  0  0  0  0  0  0
   -4.6415    1.5064   -1.3220 N   0  0  0  0  0  0  0  0  0  0  0  0
   -5.7499   -2.6103   -0.1846 C   0  0  0  0  0  0  0  0  0  0  0  0
   -5.5582   -3.3616   -1.5415 C   0  0  0  0  0  0  0  0  0  0  0  0
   -5.2040   -4.5430   -1.6172 O   0  0  0  0  0  0  0  0  0  0  0  0
   -5.8212   -2.7677   -2.7381 N   0  0  0  0  0  0  0  0  0  0  0  0
   -6.5160   -1.5357   -3.0683 C   0  0  0  0  0  0  0  0  0  0  0  0
   -5.6760   -0.6089   -3.9570 C   0  0  0  0  0  0  0  0  0  0  0  0
   -5.3314   -1.0651   -5.3634 C   0  0  0  0  0  0  0  0  0  0  0  0
   -5.8077   -2.2450   -5.9555 C   0  0  0  0  0  0  0  0  0  0  0  0
   -5.4104   -2.6163   -7.2464 C   0  0  0  0  0  0  0  0  0  0  0  0
   -4.5566   -1.7970   -7.9790 C   0  0  0  0  0  0  0  0  0  0  0  0
   -4.1091   -0.6111   -7.4159 C   0  0  0  0  0  0  0  0  0  0  0  0
   -3.3029    0.1925   -8.1222 F   0  0  0  0  0  0  0  0  0  0  0  0
   -4.4834   -0.2432   -6.1260 C   0  0  0  0  0  0  0  0  0  0  0  0
   -5.5842   -3.4591    1.0870 C   0  0  0  0  0  0  0  0  0  0  0  0
   -5.1425   -2.9153    2.3044 C   0  0  0  0  0  0  0  0  0  0  0  0
   -5.0432   -3.7092    3.4457 C   0  0  0  0  0  0  0  0  0  0  0  0
   -5.4159   -5.0355    3.3550 C   0  0  0  0  0  0  0  0  0  0  0  0
   -5.8905   -5.5956    2.2269 N   0  0  0  0  0  0  0  0  0  0  0  0
   -5.9714   -4.7998    1.1315 C   0  0  0  0  0  0  0  0  0  0  0  0
   -2.8165   -2.4601   -0.5432 C   0  0  0  0  0  0  0  0  0  0  0  0
   -1.4128   -2.4728   -0.6139 C   0  0  0  0  0  0  0  0  0  0  0  0
    1.3582   -1.7077   -2.1917 S   0  0  0  0  0  0  0  0  0  0  0  0
    0.4692   -0.5179   -3.1737 C   0  0  0  0  0  0  0  0  0  0  0  0
    2.7688   -1.3981   -2.3496 O   0  0  0  0  0  0  0  0  0  0  0  0
    0.8809   -3.0240   -2.5813 O   0  0  0  0  0  0  0  0  0  0  0  0
    1.3438    0.2011    1.0408 H   0  0  0  0  0  0  0  0  0  0  0  0
    1.2481    0.7993   -0.6242 H   0  0  0  0  0  0  0  0  0  0  0  0
    2.6569   -0.1105   -0.0913 H   0  0  0  0  0  0  0  0  0  0  0  0
    1.1783   -2.3554    1.5009 H   0  0  0  0  0  0  0  0  0  0  0  0
    1.1235   -3.4835    0.1417 H   0  0  0  0  0  0  0  0  0  0  0  0
    2.5603   -2.5056    0.4013 H   0  0  0  0  0  0  0  0  0  0  0  0
   -0.8549    0.6972    0.4099 H   0  0  0  0  0  0  0  0  0  0  0  0
   -3.1984    0.6747    0.6225 H   0  0  0  0  0  0  0  0  0  0  0  0
   -6.3730    2.5165    1.3241 H   0  0  0  0  0  0  0  0  0  0  0  0
   -4.0263    3.4980   -1.8877 H   0  0  0  0  0  0  0  0  0  0  0  0
   -6.8268   -2.3881   -0.1978 H   0  0  0  0  0  0  0  0  0  0  0  0
   -5.6183   -3.4014   -3.5029 H   0  0  0  0  0  0  0  0  0  0  0  0
   -7.4444   -1.8199   -3.5758 H   0  0  0  0  0  0  0  0  0  0  0  0
   -6.8071   -1.0163   -2.1556 H   0  0  0  0  0  0  0  0  0  0  0  0
   -6.2160    0.3423   -4.0489 H   0  0  0  0  0  0  0  0  0  0  0  0
   -4.7317   -0.4020   -3.4367 H   0  0  0  0  0  0  0  0  0  0  0  0
   -6.4942   -2.9071   -5.4357 H   0  0  0  0  0  0  0  0  0  0  0  0
   -5.7703   -3.5475   -7.6783 H   0  0  0  0  0  0  0  0  0  0  0  0
   -4.2434   -2.0723   -8.9807 H   0  0  0  0  0  0  0  0  0  0  0  0
   -4.1043    0.6919   -5.7226 H   0  0  0  0  0  0  0  0  0  0  0  0
   -4.8731   -1.8666    2.3900 H   0  0  0  0  0  0  0  0  0  0  0  0
   -4.6892   -3.2975    4.3838 H   0  0  0  0  0  0  0  0  0  0  0  0
   -5.3506   -5.6990    4.2120 H   0  0  0  0  0  0  0  0  0  0  0  0
   -6.3849   -5.3126    0.2665 H   0  0  0  0  0  0  0  0  0  0  0  0
   -3.2790   -3.4126   -0.7693 H   0  0  0  0  0  0  0  0  0  0  0  0
   -0.9422   -3.4125   -0.9066 H   0  0  0  0  0  0  0  0  0  0  0  0
    0.7562    0.4886   -2.8679 H   0  0  0  0  0  0  0  0  0  0  0  0
    0.7523   -0.6740   -4.2178 H   0  0  0  0  0  0  0  0  0  0  0  0
   -0.6042   -0.6723   -3.0638 H   0  0  0  0  0  0  0  0  0  0  0  0
  1  2  1  0  0  0  0
  1 41  1  0  0  0  0
  1 42  1  0  0  0  0
  1 43  1  0  0  0  0
  2  3  1  0  0  0  0
  2  4  1  0  0  0  0
  2 37  1  0  0  0  0
  3 44  1  0  0  0  0
  3 45  1  0  0  0  0
  3 46  1  0  0  0  0
  4  5  1  0  0  0  0
  4 36  2  0  0  0  0
  5  6  2  0  0  0  0
  5 47  1  0  0  0  0
  6  7  1  0  0  0  0
  6 48  1  0  0  0  0
  7  8  1  0  0  0  0
  7 35  2  0  0  0  0
  8  9  1  0  0  0  0
  8 16  1  0  0  0  0
  9 10  2  0  0  0  0
  9 11  1  0  0  0  0
 11 12  2  0  0  0  0
 11 15  1  0  0  0  0
 12 13  1  0  0  0  0
 12 49  1  0  0  0  0
 13 14  1  0  0  0  0
 14 15  2  0  0  0  0
 14 50  1  0  0  0  0
 16 17  1  0  0  0  0
 16 29  1  0  0  0  0
 16 51  1  0  0  0  0
 17 18  2  0  0  0  0
 17 19  1  0  0  0  0
 19 20  1  0  0  0  0
 19 52  1  0  0  0  0
 20 21  1  0  0  0  0
 20 53  1  0  0  0  0
 20 54  1  0  0  0  0
 21 22  1  0  0  0  0
 21 55  1  0  0  0  0
 21 56  1  0  0  0  0
 22 23  1  0  0  0  0
 22 28  2  0  0  0  0
 23 24  2  0  0  0  0
 23 57  1  0  0  0  0
 24 25  1  0  0  0  0
 24 58  1  0  0  0  0
 25 26  2  0  0  0  0
 25 59  1  0  0  0  0
 26 27  1  0  0  0  0
 26 28  1  0  0  0  0
 28 60  1  0  0  0  0
 29 30  1  0  0  0  0
 29 34  2  0  0  0  0
 30 31  2  0  0  0  0
 30 61  1  0  0  0  0
 31 32  1  0  0  0  0
 31 62  1  0  0  0  0
 32 33  2  0  0  0  0
 32 63  1  0  0  0  0
 33 34  1  0  0  0  0
 34 64  1  0  0  0  0
 35 36  1  0  0  0  0
 35 65  1  0  0  0  0
 36 66  1  0  0  0  0
 37 38  1  0  0  0  0
 37 39  2  0  0  0  0
 37 40  2  0  0  0  0
 38 67  1  0  0  0  0
 38 68  1  0  0  0  0
 38 69  1  0  0  0  0
M  END
$$$$
