
 OpenBabel06282218353D

 55 58  0  0  0  0  0  0  0  0999 V2000
    1.3804   -0.7716    0.3041 O   0  0  0  0  0  0  0  0  0  0  0  0
    2.4807   -0.2276    0.1825 C   0  0  0  0  0  0  0  0  0  0  0  0
    3.2367   -0.1288    1.3234 N   0  0  0  0  0  0  0  0  0  0  0  0
    4.6853   -0.2390    1.4239 C   0  0  0  0  0  0  0  0  0  0  0  0
    5.2316    0.3241    2.7397 C   0  0  0  0  0  0  0  0  0  0  0  0
    4.7186   -0.3917    3.9681 C   0  0  0  0  0  0  0  0  0  0  0  0
    3.9418    0.2953    4.9121 C   0  0  0  0  0  0  0  0  0  0  0  0
    3.4593   -0.3585    6.0479 C   0  0  0  0  0  0  0  0  0  0  0  0
    3.7465   -1.7073    6.2529 C   0  0  0  0  0  0  0  0  0  0  0  0
    4.5215   -2.3951    5.3228 C   0  0  0  0  0  0  0  0  0  0  0  0
    4.8764   -4.0608    5.5702 Cl  0  0  0  0  0  0  0  0  0  0  0  0
    5.0116   -1.7457    4.1888 C   0  0  0  0  0  0  0  0  0  0  0  0
    2.9918    0.4006   -1.1524 C   0  0  0  0  0  0  0  0  0  0  0  0
    2.6389   -0.3621   -2.4291 C   0  0  0  0  0  0  0  0  0  0  0  0
    2.4593   -1.7520   -2.4457 C   0  0  0  0  0  0  0  0  0  0  0  0
    2.2359   -2.4185   -3.6495 C   0  0  0  0  0  0  0  0  0  0  0  0
    2.2196   -1.6798   -4.8179 C   0  0  0  0  0  0  0  0  0  0  0  0
    2.4162   -0.3480   -4.8564 N   0  0  0  0  0  0  0  0  0  0  0  0
    2.6186    0.2739   -3.6718 C   0  0  0  0  0  0  0  0  0  0  0  0
    2.6930    1.8627   -1.1834 N   0  0  0  0  0  0  0  0  0  0  0  0
    3.6510    2.7686   -0.6571 C   0  0  0  0  0  0  0  0  0  0  0  0
    3.3205    3.7588   -0.0024 O   0  0  0  0  0  0  0  0  0  0  0  0
    5.0569    2.5069   -0.9291 C   0  0  0  0  0  0  0  0  0  0  0  0
    5.7391    2.0237   -2.0339 C   0  0  0  0  0  0  0  0  0  0  0  0
    7.1139    1.9996   -1.6904 C   0  0  0  0  0  0  0  0  0  0  0  0
    7.1966    2.4905   -0.4104 C   0  0  0  0  0  0  0  0  0  0  0  0
    5.9628    2.8019    0.0576 O   0  0  0  0  0  0  0  0  0  0  0  0
    1.3508    2.3484   -1.4525 C   0  0  0  0  0  0  0  0  0  0  0  0
    0.2132    1.5290   -1.4435 C   0  0  0  0  0  0  0  0  0  0  0  0
   -1.0623    2.0368   -1.7334 C   0  0  0  0  0  0  0  0  0  0  0  0
   -1.2189    3.3706   -2.0832 C   0  0  0  0  0  0  0  0  0  0  0  0
   -2.7797    3.9876   -2.4534 Cl  0  0  0  0  0  0  0  0  0  0  0  0
   -0.1088    4.2002   -2.1453 C   0  0  0  0  0  0  0  0  0  0  0  0
    1.1588    3.6923   -1.8306 C   0  0  0  0  0  0  0  0  0  0  0  0
    2.7325   -0.5454    2.1017 H   0  0  0  0  0  0  0  0  0  0  0  0
    4.9267   -1.3023    1.3141 H   0  0  0  0  0  0  0  0  0  0  0  0
    5.1630    0.2725    0.5925 H   0  0  0  0  0  0  0  0  0  0  0  0
    6.3268    0.2584    2.7367 H   0  0  0  0  0  0  0  0  0  0  0  0
    4.9870    1.3921    2.8006 H   0  0  0  0  0  0  0  0  0  0  0  0
    3.7046    1.3488    4.7697 H   0  0  0  0  0  0  0  0  0  0  0  0
    2.8586    0.1857    6.7729 H   0  0  0  0  0  0  0  0  0  0  0  0
    3.3663   -2.2124    7.1366 H   0  0  0  0  0  0  0  0  0  0  0  0
    5.6227   -2.2989    3.4800 H   0  0  0  0  0  0  0  0  0  0  0  0
    4.0727    0.2677   -1.1183 H   0  0  0  0  0  0  0  0  0  0  0  0
    2.4864   -2.3371   -1.5290 H   0  0  0  0  0  0  0  0  0  0  0  0
    2.0827   -3.4918   -3.6740 H   0  0  0  0  0  0  0  0  0  0  0  0
    2.0492   -2.1526   -5.7808 H   0  0  0  0  0  0  0  0  0  0  0  0
    2.7771    1.3450   -3.7708 H   0  0  0  0  0  0  0  0  0  0  0  0
    5.3033    1.7340   -2.9802 H   0  0  0  0  0  0  0  0  0  0  0  0
    7.9445    1.6829   -2.3063 H   0  0  0  0  0  0  0  0  0  0  0  0
    8.0155    2.6782    0.2710 H   0  0  0  0  0  0  0  0  0  0  0  0
    0.2519    0.4755   -1.1985 H   0  0  0  0  0  0  0  0  0  0  0  0
   -1.9235    1.3750   -1.6837 H   0  0  0  0  0  0  0  0  0  0  0  0
   -0.2127    5.2412   -2.4388 H   0  0  0  0  0  0  0  0  0  0  0  0
    1.9981    4.3793   -1.9168 H   0  0  0  0  0  0  0  0  0  0  0  0
  1  2  2  0  0  0  0
  2  3  1  0  0  0  0
  2 13  1  0  0  0  0
  3  4  1  0  0  0  0
  3 35  1  0  0  0  0
  4  5  1  0  0  0  0
  4 36  1  0  0  0  0
  4 37  1  0  0  0  0
  5  6  1  0  0  0  0
  5 38  1  0  0  0  0
  5 39  1  0  0  0  0
  6  7  1  0  0  0  0
  6 12  2  0  0  0  0
  7  8  2  0  0  0  0
  7 40  1  0  0  0  0
  8  9  1  0  0  0  0
  8 41  1  0  0  0  0
  9 10  2  0  0  0  0
  9 42  1  0  0  0  0
 10 11  1  0  0  0  0
 10 12  1  0  0  0  0
 12 43  1  0  0  0  0
 13 14  1  0  0  0  0
 13 20  1  0  0  0  0
 13 44  1  0  0  0  0
 14 15  1  0  0  0  0
 14 19  2  0  0  0  0
 15 16  2  0  0  0  0
 15 45  1  0  0  0  0
 16 17  1  0  0  0  0
 16 46  1  0  0  0  0
 17 18  2  0  0  0  0
 17 47  1  0  0  0  0
 18 19  1  0  0  0  0
 19 48  1  0  0  0  0
 20 21  1  0  0  0  0
 20 28  1  0  0  0  0
 21 22  2  0  0  0  0
 21 23  1  0  0  0  0
 23 24  2  0  0  0  0
 23 27  1  0  0  0  0
 24 25  1  0  0  0  0
 24 49  1  0  0  0  0
 25 26  2  0  0  0  0
 25 50  1  0  0  0  0
 26 27  1  0  0  0  0
 26 51  1  0  0  0  0
 28 29  1  0  0  0  0
 28 34  2  0  0  0  0
 29 30  2  0  0  0  0
 29 52  1  0  0  0  0
 30 31  1  0  0  0  0
 30 53  1  0  0  0  0
 31 32  1  0  0  0  0
 31 33  2  0  0  0  0
 33 34  1  0  0  0  0
 33 54  1  0  0  0  0
 34 55  1  0  0  0  0
M  END
$$$$
