
 OpenBabel06282218353D

 64 67  0  0  0  0  0  0  0  0999 V2000
    1.6560   -0.4288    0.0285 C   0  0  0  0  0  0  0  0  0  0  0  0
    0.8821    0.8109   -0.3785 C   0  0  0  0  0  0  0  0  0  0  0  0
    1.1848    1.1917   -1.7473 N   0  0  0  0  0  0  0  0  0  0  0  0
    0.3651    1.3738   -2.8306 C   0  0  0  0  0  0  0  0  0  0  0  0
    0.8689    1.4909   -3.9473 O   0  0  0  0  0  0  0  0  0  0  0  0
   -1.1107    1.4159   -2.6963 C   0  0  0  0  0  0  0  0  0  0  0  0
   -1.8879    0.9143   -3.7361 C   0  0  0  0  0  0  0  0  0  0  0  0
   -3.2903    0.9681   -3.6726 C   0  0  0  0  0  0  0  0  0  0  0  0
   -3.9736    1.4661   -2.5526 C   0  0  0  0  0  0  0  0  0  0  0  0
   -5.4263    1.5253   -2.4719 N   0  0  0  0  0  0  0  0  0  0  0  0
   -6.3279    1.0604   -3.4642 C   0  0  0  0  0  0  0  0  0  0  0  0
   -7.4146    1.6194   -3.6435 O   0  0  0  0  0  0  0  0  0  0  0  0
   -6.0489   -0.1522   -4.2279 C   0  0  0  0  0  0  0  0  0  0  0  0
   -6.5710   -0.4296   -5.4743 C   0  0  0  0  0  0  0  0  0  0  0  0
   -6.1076   -1.6436   -5.8758 O   0  0  0  0  0  0  0  0  0  0  0  0
   -5.3464   -2.0636   -4.8298 C   0  0  0  0  0  0  0  0  0  0  0  0
   -5.2904   -1.2343   -3.8102 N   0  0  0  0  0  0  0  0  0  0  0  0
   -6.0817    2.3441   -1.4120 C   0  0  0  0  0  0  0  0  0  0  0  0
   -5.8091    1.8710    0.0587 C   0  0  0  0  0  0  0  0  0  0  0  0
   -5.3802    2.6289    0.9365 O   0  0  0  0  0  0  0  0  0  0  0  0
   -6.1473    0.6181    0.4832 N   0  0  0  0  0  0  0  0  0  0  0  0
   -6.5374   -0.5682   -0.2592 C   0  0  0  0  0  0  0  0  0  0  0  0
   -5.3679   -1.5427   -0.4595 C   0  0  0  0  0  0  0  0  0  0  0  0
   -5.0216   -2.3327    0.7857 C   0  0  0  0  0  0  0  0  0  0  0  0
   -5.4044   -3.6797    0.8977 C   0  0  0  0  0  0  0  0  0  0  0  0
   -5.0983   -4.4189    2.0447 C   0  0  0  0  0  0  0  0  0  0  0  0
   -4.4139   -3.8175    3.0980 C   0  0  0  0  0  0  0  0  0  0  0  0
   -4.0301   -2.4870    2.9890 C   0  0  0  0  0  0  0  0  0  0  0  0
   -3.3726   -1.9066    4.0016 F   0  0  0  0  0  0  0  0  0  0  0  0
   -4.3171   -1.7453    1.8456 C   0  0  0  0  0  0  0  0  0  0  0  0
   -5.9829    3.8642   -1.6088 C   0  0  0  0  0  0  0  0  0  0  0  0
   -6.6563    4.7384   -0.7397 C   0  0  0  0  0  0  0  0  0  0  0  0
   -6.5635    6.1181   -0.9072 C   0  0  0  0  0  0  0  0  0  0  0  0
   -5.8089    6.5995   -1.9591 C   0  0  0  0  0  0  0  0  0  0  0  0
   -5.1742    5.8049   -2.8420 N   0  0  0  0  0  0  0  0  0  0  0  0
   -5.2849    4.4669   -2.6535 C   0  0  0  0  0  0  0  0  0  0  0  0
   -3.1586    2.0277   -1.5516 C   0  0  0  0  0  0  0  0  0  0  0  0
   -1.7563    2.0297   -1.6310 C   0  0  0  0  0  0  0  0  0  0  0  0
    1.3591   -1.2871   -0.5832 H   0  0  0  0  0  0  0  0  0  0  0  0
    1.4591   -0.6704    1.0776 H   0  0  0  0  0  0  0  0  0  0  0  0
    2.7336   -0.2830   -0.0961 H   0  0  0  0  0  0  0  0  0  0  0  0
   -0.1807    0.6096   -0.2448 H   0  0  0  0  0  0  0  0  0  0  0  0
    1.1654    1.6564    0.2565 H   0  0  0  0  0  0  0  0  0  0  0  0
    2.1640    1.2412   -2.0055 H   0  0  0  0  0  0  0  0  0  0  0  0
   -1.4092    0.4977   -4.6213 H   0  0  0  0  0  0  0  0  0  0  0  0
   -3.7965    0.6253   -4.5656 H   0  0  0  0  0  0  0  0  0  0  0  0
   -7.2218    0.0970   -6.1585 H   0  0  0  0  0  0  0  0  0  0  0  0
   -4.8669   -3.0266   -4.9400 H   0  0  0  0  0  0  0  0  0  0  0  0
   -7.1644    2.1606   -1.4884 H   0  0  0  0  0  0  0  0  0  0  0  0
   -5.9760    0.4936    1.4751 H   0  0  0  0  0  0  0  0  0  0  0  0
   -7.3433   -1.0449    0.3103 H   0  0  0  0  0  0  0  0  0  0  0  0
   -6.9524   -0.2699   -1.2213 H   0  0  0  0  0  0  0  0  0  0  0  0
   -5.6394   -2.2490   -1.2532 H   0  0  0  0  0  0  0  0  0  0  0  0
   -4.4714   -1.0165   -0.8069 H   0  0  0  0  0  0  0  0  0  0  0  0
   -5.9400   -4.1692    0.0861 H   0  0  0  0  0  0  0  0  0  0  0  0
   -5.3937   -5.4630    2.1145 H   0  0  0  0  0  0  0  0  0  0  0  0
   -4.1740   -4.3758    3.9972 H   0  0  0  0  0  0  0  0  0  0  0  0
   -3.9804   -0.7140    1.7975 H   0  0  0  0  0  0  0  0  0  0  0  0
   -7.2463    4.3527    0.0894 H   0  0  0  0  0  0  0  0  0  0  0  0
   -7.0641    6.7983   -0.2277 H   0  0  0  0  0  0  0  0  0  0  0  0
   -5.6942    7.6660   -2.1277 H   0  0  0  0  0  0  0  0  0  0  0  0
   -4.7655    3.8926   -3.4139 H   0  0  0  0  0  0  0  0  0  0  0  0
   -3.5602    2.5419   -0.6861 H   0  0  0  0  0  0  0  0  0  0  0  0
   -1.1907    2.5421   -0.8573 H   0  0  0  0  0  0  0  0  0  0  0  0
  1  2  1  0  0  0  0
  1 39  1  0  0  0  0
  1 40  1  0  0  0  0
  1 41  1  0  0  0  0
  2  3  1  0  0  0  0
  2 42  1  0  0  0  0
  2 43  1  0  0  0  0
  3  4  1  0  0  0  0
  3 44  1  0  0  0  0
  4  5  2  0  0  0  0
  4  6  1  0  0  0  0
  6  7  1  0  0  0  0
  6 38  2  0  0  0  0
  7  8  2  0  0  0  0
  7 45  1  0  0  0  0
  8  9  1  0  0  0  0
  8 46  1  0  0  0  0
  9 10  1  0  0  0  0
  9 37  2  0  0  0  0
 10 11  1  0  0  0  0
 10 18  1  0  0  0  0
 11 12  2  0  0  0  0
 11 13  1  0  0  0  0
 13 14  2  0  0  0  0
 13 17  1  0  0  0  0
 14 15  1  0  0  0  0
 14 47  1  0  0  0  0
 15 16  1  0  0  0  0
 16 17  2  0  0  0  0
 16 48  1  0  0  0  0
 18 19  1  0  0  0  0
 18 31  1  0  0  0  0
 18 49  1  0  0  0  0
 19 20  2  0  0  0  0
 19 21  1  0  0  0  0
 21 22  1  0  0  0  0
 21 50  1  0  0  0  0
 22 23  1  0  0  0  0
 22 51  1  0  0  0  0
 22 52  1  0  0  0  0
 23 24  1  0  0  0  0
 23 53  1  0  0  0  0
 23 54  1  0  0  0  0
 24 25  1  0  0  0  0
 24 30  2  0  0  0  0
 25 26  2  0  0  0  0
 25 55  1  0  0  0  0
 26 27  1  0  0  0  0
 26 56  1  0  0  0  0
 27 28  2  0  0  0  0
 27 57  1  0  0  0  0
 28 29  1  0  0  0  0
 28 30  1  0  0  0  0
 30 58  1  0  0  0  0
 31 32  1  0  0  0  0
 31 36  2  0  0  0  0
 32 33  2  0  0  0  0
 32 59  1  0  0  0  0
 33 34  1  0  0  0  0
 33 60  1  0  0  0  0
 34 35  2  0  0  0  0
 34 61  1  0  0  0  0
 35 36  1  0  0  0  0
 36 62  1  0  0  0  0
 37 38  1  0  0  0  0
 37 63  1  0  0  0  0
 38 64  1  0  0  0  0
M  END
$$$$
