lig_23473
     RDKit          3D

 41 43  0  0  0  0  0  0  0  0999 V2000
   41.1500   17.2200   11.7700 O   0  0  0  0  0  0  0  0  0  0  0  0
   40.3300   17.0300   12.6900 C   0  0  0  0  0  0  0  0  0  0  0  0
   39.1700   17.5000   12.7200 O   0  0  0  0  0  0  0  0  0  0  0  0
   40.7400   16.1400   13.8700 C   0  0  0  0  0  0  0  0  0  0  0  0
   42.0900   15.7300   13.7400 O   0  0  0  0  0  0  0  0  0  0  0  0
   42.5100   14.9200   14.7400 C   0  0  0  0  0  0  0  0  0  0  0  0
   42.1900   13.5700   14.8700 C   0  0  0  0  0  0  0  0  0  0  0  0
   41.1691   12.6116   13.4637 Br  0  0  0  0  0  0  0  0  0  0  0  0
   42.6200   12.9300   16.0200 C   0  0  0  0  0  0  0  0  0  0  0  0
   42.3400   11.5900   16.4800 C   0  0  0  0  0  0  0  0  0  0  0  0
   43.3700   10.7600   16.9500 C   0  0  0  0  0  0  0  0  0  0  0  0
   43.0900    9.4600   17.3700 C   0  0  0  0  0  0  0  0  0  0  0  0
   41.7800    8.9700   17.3100 C   0  0  0  0  0  0  0  0  0  0  0  0
   40.7400    9.7900   16.8400 C   0  0  0  0  0  0  0  0  0  0  0  0
   39.4000    9.3800   16.7700 O   0  0  0  0  0  0  0  0  0  0  0  0
   39.0000    7.9700   16.7100 C   0  0  0  0  0  0  0  0  0  0  0  0
   39.0500    7.4100   15.3000 C   0  0  0  0  0  0  0  0  0  0  0  0
   40.2600    7.0600   14.7100 C   0  0  0  0  0  0  0  0  0  0  0  0
   40.2900    6.5200   13.4200 C   0  0  0  0  0  0  0  0  0  0  0  0
   39.1100    6.3100   12.7200 C   0  0  0  0  0  0  0  0  0  0  0  0
   37.8900    6.6600   13.3100 C   0  0  0  0  0  0  0  0  0  0  0  0
   37.8500    7.2100   14.5900 C   0  0  0  0  0  0  0  0  0  0  0  0
   41.0300   11.0900   16.4500 C   0  0  0  0  0  0  0  0  0  0  0  0
   43.6400   14.0300   16.9200 S   0  0  0  0  0  0  0  0  0  0  0  0
   43.3700   15.3200   15.7700 C   0  0  0  0  0  0  0  0  0  0  0  0
   44.0500   16.6100   16.0400 C   0  0  0  0  0  0  0  0  0  0  0  0
   43.8800   17.5600   15.2400 O   0  0  0  0  0  0  0  0  0  0  0  0
   44.7800   16.7200   17.0500 O   0  0  0  0  0  0  0  0  0  0  0  0
   40.6100   16.7000   14.8000 H   0  0  0  0  0  0  0  0  0  0  0  0
   40.0700   15.2800   13.9000 H   0  0  0  0  0  0  0  0  0  0  0  0
   44.3800   11.1200   16.9800 H   0  0  0  0  0  0  0  0  0  0  0  0
   43.8800    8.8300   17.7300 H   0  0  0  0  0  0  0  0  0  0  0  0
   41.6000    7.9600   17.6400 H   0  0  0  0  0  0  0  0  0  0  0  0
   39.6600    7.3700   17.3300 H   0  0  0  0  0  0  0  0  0  0  0  0
   37.9800    7.8600   17.1000 H   0  0  0  0  0  0  0  0  0  0  0  0
   41.1900    7.2100   15.2400 H   0  0  0  0  0  0  0  0  0  0  0  0
   41.2400    6.2700   12.9600 H   0  0  0  0  0  0  0  0  0  0  0  0
   39.1300    5.8800   11.7300 H   0  0  0  0  0  0  0  0  0  0  0  0
   36.9700    6.5000   12.7700 H   0  0  0  0  0  0  0  0  0  0  0  0
   36.9100    7.4700   15.0300 H   0  0  0  0  0  0  0  0  0  0  0  0
   40.2300   11.7300   16.1200 H   0  0  0  0  0  0  0  0  0  0  0  0
  1  2  2  0
  2  3  1  0
  2  4  1  0
  4  5  1  0
  4 29  1  0
  4 30  1  0
  5  6  1  0
  6  7  1  0
  6 25  2  0
  7  8  1  0
  7  9  2  0
  9 10  1  0
  9 24  1  0
 10 11  2  0
 10 23  1  0
 11 12  1  0
 11 31  1  0
 12 13  2  0
 12 32  1  0
 13 14  1  0
 13 33  1  0
 14 15  1  0
 14 23  2  0
 15 16  1  0
 16 17  1  0
 16 34  1  0
 16 35  1  0
 17 18  2  0
 17 22  1  0
 18 19  1  0
 18 36  1  0
 19 20  2  0
 19 37  1  0
 20 21  1  0
 20 38  1  0
 21 22  2  0
 21 39  1  0
 22 40  1  0
 23 41  1  0
 24 25  1  0
 25 26  1  0
 26 27  2  0
 26 28  1  0
M  CHG  2   3  -1  28  -1
M  END
$$$$
