systems/pde2/lig_49582390/lig_49582390.pdb
 OpenBabel09231909243D

 58 63  0  0  0  0  0  0  0  0999 V2000
   -4.5250   23.1210   18.3110 C   0  0  0  0  0  0  0  0  0  0  0  0
   -3.2900   22.4520   18.0510 O   0  0  0  0  0  0  0  0  0  0  0  0
   -2.3780   22.2610   19.0720 C   0  0  0  0  0  0  0  0  0  0  0  0
   -1.0750   21.9000   18.7190 C   0  0  0  0  0  0  0  0  0  0  0  0
   -0.0960   21.6390   19.6220 N   0  0  0  0  0  0  0  0  0  0  0  0
   -0.4090   21.7310   20.9380 C   0  0  0  0  0  0  0  0  0  0  0  0
   -2.6670   22.3670   20.4430 C   0  0  0  0  0  0  0  0  0  0  0  0
   -1.6780   22.0990   21.3940 C   0  0  0  0  0  0  0  0  0  0  0  0
   -2.0080   22.0870   22.8420 C   0  0  0  0  0  0  0  0  0  0  0  0
   -2.9560   21.3040   23.3160 N   0  0  0  0  0  0  0  0  0  0  0  0
   -2.9530   21.3360   24.6930 N   0  0  0  0  0  0  0  0  0  0  0  0
   -1.9680   22.1870   25.0440 C   0  0  0  0  0  0  0  0  0  0  0  0
   -1.4650   22.5800   26.2920 C   0  0  0  0  0  0  0  0  0  0  0  0
   -1.9850   22.0640   27.6200 C   0  0  0  0  0  0  0  0  0  0  0  0
   -0.4410   23.4620   26.3970 N   0  0  0  0  0  0  0  0  0  0  0  0
   -1.3710   22.7400   23.8950 N   0  0  0  0  0  0  0  0  0  0  0  0
   -0.3900   23.6820   23.9640 C   0  0  0  0  0  0  0  0  0  0  0  0
    0.1480   24.3760   22.8360 C   0  0  0  0  0  0  0  0  0  0  0  0
    1.1600   25.3300   23.0180 C   0  0  0  0  0  0  0  0  0  0  0  0
    1.6270   25.6100   24.3030 C   0  0  0  0  0  0  0  0  0  0  0  0
    1.1020   24.9720   25.4180 C   0  0  0  0  0  0  0  0  0  0  0  0
    0.0820   24.0150   25.2710 C   0  0  0  0  0  0  0  0  0  0  0  0
    1.7590   26.1290   21.8550 C   0  0  0  0  0  0  0  0  0  0  0  0
    2.5760   25.3940   20.8730 N   0  0  0  0  0  0  0  0  0  0  0  0
    3.1620   24.1440   21.3700 C   0  0  0  0  0  0  0  0  0  0  0  0
    4.0460   23.4790   20.2970 C   0  0  0  0  0  0  0  0  0  0  0  0
    5.0740   24.3680   19.8750 O   0  0  0  0  0  0  0  0  0  0  0  0
    4.5610   25.5920   19.3560 C   0  0  0  0  0  0  0  0  0  0  0  0
    3.6330   26.2890   20.3760 C   0  0  0  0  0  0  0  0  0  0  0  0
   -5.1480   22.9780   17.4300 H   0  0  0  0  0  0  0  0  0  0  0  0
   -5.0880   22.6640   19.1260 H   0  0  0  0  0  0  0  0  0  0  0  0
   -0.7970   21.8030   17.6800 H   0  0  0  0  0  0  0  0  0  0  0  0
    0.3780   21.4800   21.6340 H   0  0  0  0  0  0  0  0  0  0  0  0
   -3.6550   22.6250   20.7890 H   0  0  0  0  0  0  0  0  0  0  0  0
   -1.1880   21.5780   28.1830 H   0  0  0  0  0  0  0  0  0  0  0  0
   -2.3850   22.8830   28.2180 H   0  0  0  0  0  0  0  0  0  0  0  0
   -2.7810   21.3320   27.4770 H   0  0  0  0  0  0  0  0  0  0  0  0
   -0.2280   24.1970   21.8420 H   0  0  0  0  0  0  0  0  0  0  0  0
    2.3980   26.3530   24.4490 H   0  0  0  0  0  0  0  0  0  0  0  0
    1.4530   25.2230   26.4080 H   0  0  0  0  0  0  0  0  0  0  0  0
    2.3490   26.9440   22.2800 H   0  0  0  0  0  0  0  0  0  0  0  0
    0.9370   26.6050   21.3200 H   0  0  0  0  0  0  0  0  0  0  0  0
    2.3580   23.4530   21.6060 H   0  0  0  0  0  0  0  0  0  0  0  0
    3.7300   24.3070   22.2870 H   0  0  0  0  0  0  0  0  0  0  0  0
    3.4430   23.1660   19.4430 H   0  0  0  0  0  0  0  0  0  0  0  0
    4.4930   22.5700   20.6960 H   0  0  0  0  0  0  0  0  0  0  0  0
    4.0350   25.4130   18.4160 H   0  0  0  0  0  0  0  0  0  0  0  0
    5.3990   26.2450   19.1130 H   0  0  0  0  0  0  0  0  0  0  0  0
    4.2420   26.6570   21.2050 H   0  0  0  0  0  0  0  0  0  0  0  0
    3.1840   27.1680   19.9110 H   0  0  0  0  0  0  0  0  0  0  0  0
   -5.1070   25.5220   17.6000 C   0  0  0  0  0  0  0  0  0  0  0  0
   -4.3280   24.6280   18.5290 C   0  0  0  0  0  0  0  0  0  0  0  0
   -5.5310   25.3780   19.0380 C   0  0  0  0  0  0  0  0  0  0  0  0
   -4.6200   26.4880   17.3290 H   0  0  0  0  0  0  0  0  0  0  0  0
   -5.7490   25.0050   16.8480 H   0  0  0  0  0  0  0  0  0  0  0  0
   -3.3350   25.0140   18.8590 H   0  0  0  0  0  0  0  0  0  0  0  0
   -6.4470   24.7680   19.2190 H   0  0  0  0  0  0  0  0  0  0  0  0
   -5.3170   26.2510   19.7000 H   0  0  0  0  0  0  0  0  0  0  0  0
  1  2  1  0  0  0  0
  1 30  1  0  0  0  0
  1 31  1  0  0  0  0
  1 52  1  0  0  0  0
  2  3  1  0  0  0  0
  3  4  2  0  0  0  0
  3  7  1  0  0  0  0
  4  5  1  0  0  0  0
  4 32  1  0  0  0  0
  5  6  2  0  0  0  0
  6  8  1  0  0  0  0
  6 33  1  0  0  0  0
  7  8  2  0  0  0  0
  7 34  1  0  0  0  0
  8  9  1  0  0  0  0
  9 10  2  0  0  0  0
  9 16  1  0  0  0  0
 10 11  1  0  0  0  0
 11 12  2  0  0  0  0
 12 13  1  0  0  0  0
 12 16  1  0  0  0  0
 13 14  1  0  0  0  0
 13 15  2  0  0  0  0
 14 35  1  0  0  0  0
 14 36  1  0  0  0  0
 14 37  1  0  0  0  0
 15 22  1  0  0  0  0
 16 17  1  0  0  0  0
 17 18  2  0  0  0  0
 17 22  1  0  0  0  0
 18 19  1  0  0  0  0
 18 38  1  0  0  0  0
 19 20  2  0  0  0  0
 19 23  1  0  0  0  0
 20 21  1  0  0  0  0
 20 39  1  0  0  0  0
 21 22  2  0  0  0  0
 21 40  1  0  0  0  0
 23 24  1  0  0  0  0
 23 41  1  0  0  0  0
 23 42  1  0  0  0  0
 24 25  1  0  0  0  0
 24 29  1  0  0  0  0
 25 26  1  0  0  0  0
 25 43  1  0  0  0  0
 25 44  1  0  0  0  0
 26 27  1  0  0  0  0
 26 45  1  0  0  0  0
 26 46  1  0  0  0  0
 27 28  1  0  0  0  0
 28 29  1  0  0  0  0
 28 47  1  0  0  0  0
 28 48  1  0  0  0  0
 29 49  1  0  0  0  0
 29 50  1  0  0  0  0
 51 52  1  0  0  0  0
 51 53  1  0  0  0  0
 51 54  1  0  0  0  0
 51 55  1  0  0  0  0
 52 53  1  0  0  0  0
 52 56  1  0  0  0  0
 53 57  1  0  0  0  0
 53 58  1  0  0  0  0
M  END
$$$$
