
 OpenBabel06282218303D

 46 49  0  0  0  0  0  0  0  0999 V2000
    1.3154   -0.3419    0.0260 O   0  0  0  0  0  0  0  0  0  0  0  0
    2.5566   -0.2799   -0.0372 C   0  0  0  0  0  0  0  0  0  0  0  0
    3.0848    0.8522    0.5224 N   0  0  0  0  0  0  0  0  0  0  0  0
    4.4110    1.3011    0.6052 C   0  0  0  0  0  0  0  0  0  0  0  0
    4.9697    1.4547    1.8734 C   0  0  0  0  0  0  0  0  0  0  0  0
    6.2442    1.8317    2.1047 N   0  0  0  0  0  0  0  0  0  0  0  0
    6.9993    2.0811    1.0120 C   0  0  0  0  0  0  0  0  0  0  0  0
    6.5326    2.0366   -0.3043 C   0  0  0  0  0  0  0  0  0  0  0  0
    7.3689    2.3297   -1.3963 C   0  0  0  0  0  0  0  0  0  0  0  0
    6.8656    2.3331   -2.6959 C   0  0  0  0  0  0  0  0  0  0  0  0
    5.5173    2.0794   -2.9138 C   0  0  0  0  0  0  0  0  0  0  0  0
    4.6827    1.7759   -1.8360 C   0  0  0  0  0  0  0  0  0  0  0  0
    5.1801    1.6865   -0.5164 C   0  0  0  0  0  0  0  0  0  0  0  0
    3.3809   -1.4542   -0.7157 C   0  0  0  0  0  0  0  0  0  0  0  0
    3.7818   -0.9316   -1.9909 O   0  0  0  0  0  0  0  0  0  0  0  0
    3.8987   -1.7738   -3.1412 C   0  0  0  0  0  0  0  0  0  0  0  0
    5.1425   -2.6565   -3.2345 C   0  0  0  0  0  0  0  0  0  0  0  0
    5.1539   -3.6198   -2.2912 F   0  0  0  0  0  0  0  0  0  0  0  0
    5.1779   -3.2774   -4.4387 F   0  0  0  0  0  0  0  0  0  0  0  0
    6.2785   -1.9361   -3.1238 F   0  0  0  0  0  0  0  0  0  0  0  0
    2.4293   -2.6664   -0.8323 C   0  0  0  0  0  0  0  0  0  0  0  0
    2.0420   -3.1790    0.5503 C   0  0  0  0  0  0  0  0  0  0  0  0
    3.1417   -3.4661    1.4113 O   0  0  0  0  0  0  0  0  0  0  0  0
    4.3367   -2.8611    1.1527 C   0  0  0  0  0  0  0  0  0  0  0  0
    5.3923   -3.2908    1.9650 C   0  0  0  0  0  0  0  0  0  0  0  0
    6.6872   -2.8240    1.7503 C   0  0  0  0  0  0  0  0  0  0  0  0
    6.9253   -1.9400    0.7072 C   0  0  0  0  0  0  0  0  0  0  0  0
    8.5246   -1.3849    0.4001 Cl  0  0  0  0  0  0  0  0  0  0  0  0
    5.8733   -1.5051   -0.0999 C   0  0  0  0  0  0  0  0  0  0  0  0
    4.5521   -1.9290    0.1298 C   0  0  0  0  0  0  0  0  0  0  0  0
    2.4303    1.2534    1.1859 H   0  0  0  0  0  0  0  0  0  0  0  0
    4.4010    1.2280    2.7714 H   0  0  0  0  0  0  0  0  0  0  0  0
    8.0316    2.3426    1.2326 H   0  0  0  0  0  0  0  0  0  0  0  0
    8.4214    2.5570   -1.2388 H   0  0  0  0  0  0  0  0  0  0  0  0
    7.5222    2.5506   -3.5343 H   0  0  0  0  0  0  0  0  0  0  0  0
    5.1113    2.1091   -3.9215 H   0  0  0  0  0  0  0  0  0  0  0  0
    3.6289    1.5929   -2.0369 H   0  0  0  0  0  0  0  0  0  0  0  0
    2.9887   -2.3620   -3.2904 H   0  0  0  0  0  0  0  0  0  0  0  0
    3.9376   -1.0851   -3.9933 H   0  0  0  0  0  0  0  0  0  0  0  0
    2.9220   -3.4893   -1.3648 H   0  0  0  0  0  0  0  0  0  0  0  0
    1.5314   -2.4213   -1.4124 H   0  0  0  0  0  0  0  0  0  0  0  0
    1.3767   -2.4932    1.0823 H   0  0  0  0  0  0  0  0  0  0  0  0
    1.4780   -4.1116    0.4330 H   0  0  0  0  0  0  0  0  0  0  0  0
    5.2047   -4.0123    2.7568 H   0  0  0  0  0  0  0  0  0  0  0  0
    7.5006   -3.1690    2.3818 H   0  0  0  0  0  0  0  0  0  0  0  0
    6.0987   -0.8335   -0.9238 H   0  0  0  0  0  0  0  0  0  0  0  0
  1  2  2  0  0  0  0
  2  3  1  0  0  0  0
  2 14  1  0  0  0  0
  3  4  1  0  0  0  0
  3 31  1  0  0  0  0
  4  5  1  0  0  0  0
  4 13  2  0  0  0  0
  5  6  2  0  0  0  0
  5 32  1  0  0  0  0
  6  7  1  0  0  0  0
  7  8  2  0  0  0  0
  7 33  1  0  0  0  0
  8  9  1  0  0  0  0
  8 13  1  0  0  0  0
  9 10  2  0  0  0  0
  9 34  1  0  0  0  0
 10 11  1  0  0  0  0
 10 35  1  0  0  0  0
 11 12  2  0  0  0  0
 11 36  1  0  0  0  0
 12 13  1  0  0  0  0
 12 37  1  0  0  0  0
 14 15  1  0  0  0  0
 14 21  1  0  0  0  0
 14 30  1  0  0  0  0
 15 16  1  0  0  0  0
 16 17  1  0  0  0  0
 16 38  1  0  0  0  0
 16 39  1  0  0  0  0
 17 18  1  0  0  0  0
 17 19  1  0  0  0  0
 17 20  1  0  0  0  0
 21 22  1  0  0  0  0
 21 40  1  0  0  0  0
 21 41  1  0  0  0  0
 22 23  1  0  0  0  0
 22 42  1  0  0  0  0
 22 43  1  0  0  0  0
 23 24  1  0  0  0  0
 24 25  1  0  0  0  0
 24 30  2  0  0  0  0
 25 26  2  0  0  0  0
 25 44  1  0  0  0  0
 26 27  1  0  0  0  0
 26 45  1  0  0  0  0
 27 28  1  0  0  0  0
 27 29  2  0  0  0  0
 29 30  1  0  0  0  0
 29 46  1  0  0  0  0
M  END
$$$$
