
 OpenBabel06282218303D

 50 53  0  0  0  0  0  0  0  0999 V2000
    1.5985   -0.9568   -0.6677 O   0  0  0  0  0  0  0  0  0  0  0  0
    2.6326   -0.3780   -0.3127 C   0  0  0  0  0  0  0  0  0  0  0  0
    3.1321   -0.7517    0.9244 N   0  0  0  0  0  0  0  0  0  0  0  0
    4.4700   -1.2005    1.0708 C   0  0  0  0  0  0  0  0  0  0  0  0
    4.8874   -2.3717    0.4395 C   0  0  0  0  0  0  0  0  0  0  0  0
    6.1585   -2.8225    0.4553 N   0  0  0  0  0  0  0  0  0  0  0  0
    7.0537   -2.0799    1.1467 C   0  0  0  0  0  0  0  0  0  0  0  0
    6.7424   -0.9184    1.8579 C   0  0  0  0  0  0  0  0  0  0  0  0
    7.7221   -0.1701    2.5362 C   0  0  0  0  0  0  0  0  0  0  0  0
    7.3750    0.9853    3.2357 C   0  0  0  0  0  0  0  0  0  0  0  0
    6.0448    1.3832    3.2965 C   0  0  0  0  0  0  0  0  0  0  0  0
    5.0658    0.6442    2.6303 C   0  0  0  0  0  0  0  0  0  0  0  0
    5.3972   -0.4907    1.8614 C   0  0  0  0  0  0  0  0  0  0  0  0
    3.2751    0.7918   -1.1430 C   0  0  0  0  0  0  0  0  0  0  0  0
    2.4237    1.0192   -2.3008 O   0  0  0  0  0  0  0  0  0  0  0  0
    2.6021    2.2943   -2.9444 C   0  0  0  0  0  0  0  0  0  0  0  0
    2.0545    3.5018   -2.1444 C   0  0  0  0  0  0  0  0  0  0  0  0
    2.7533    3.9279   -0.8671 O   0  0  0  0  0  0  0  0  0  0  0  0
    3.1844    3.7023    1.0616 C   0  0  0  0  0  0  0  0  0  0  0  0
    2.6419    4.6571    1.9253 F   0  0  0  0  0  0  0  0  0  0  0  0
    2.8257    2.5182    1.7107 F   0  0  0  0  0  0  0  0  0  0  0  0
    4.5361    3.7982    1.3961 F   0  0  0  0  0  0  0  0  0  0  0  0
    4.6966    0.5026   -1.6741 C   0  0  0  0  0  0  0  0  0  0  0  0
    5.8101    1.3714   -1.0795 C   0  0  0  0  0  0  0  0  0  0  0  0
    5.6585    2.7760   -1.2978 O   0  0  0  0  0  0  0  0  0  0  0  0
    4.5251    3.2329   -0.6935 C   0  0  0  0  0  0  0  0  0  0  0  0
    4.2860    5.0062   -0.4865 C   0  0  0  0  0  0  0  0  0  0  0  0
    2.6643    5.6468   -0.0350 C   0  0  0  0  0  0  0  0  0  0  0  0
    1.2774    4.5134    0.2273 C   0  0  0  0  0  0  0  0  0  0  0  0
   -0.2883    5.1395    0.5431 Cl  0  0  0  0  0  0  0  0  0  0  0  0
    1.5154    2.7307    0.0704 C   0  0  0  0  0  0  0  0  0  0  0  0
    3.1660    2.0912   -0.4019 C   0  0  0  0  0  0  0  0  0  0  0  0
    2.4862   -1.4855    1.2156 H   0  0  0  0  0  0  0  0  0  0  0  0
    4.1978   -2.9804   -0.1406 H   0  0  0  0  0  0  0  0  0  0  0  0
    8.0720   -2.4608    1.1126 H   0  0  0  0  0  0  0  0  0  0  0  0
    8.7662   -0.4754    2.5116 H   0  0  0  0  0  0  0  0  0  0  0  0
    8.1403    1.5704    3.7397 H   0  0  0  0  0  0  0  0  0  0  0  0
    5.7647    2.2755    3.8519 H   0  0  0  0  0  0  0  0  0  0  0  0
    4.0316    0.9661    2.7110 H   0  0  0  0  0  0  0  0  0  0  0  0
    3.6498    2.4488   -3.2201 H   0  0  0  0  0  0  0  0  0  0  0  0
    2.0436    2.2357   -3.8852 H   0  0  0  0  0  0  0  0  0  0  0  0
    2.2001    4.3746   -2.7959 H   0  0  0  0  0  0  0  0  0  0  0  0
    0.9644    3.4267   -2.0325 H   0  0  0  0  0  0  0  0  0  0  0  0
    4.7256    0.6381   -2.7629 H   0  0  0  0  0  0  0  0  0  0  0  0
    4.9521   -0.5517   -1.5413 H   0  0  0  0  0  0  0  0  0  0  0  0
    5.9507    1.2002   -0.0140 H   0  0  0  0  0  0  0  0  0  0  0  0
    6.7554    1.0855   -1.5556 H   0  0  0  0  0  0  0  0  0  0  0  0
    5.0985    5.6869   -0.7233 H   0  0  0  0  0  0  0  0  0  0  0  0
    2.5010    6.7185    0.0338 H   0  0  0  0  0  0  0  0  0  0  0  0
    0.6554    2.0627    0.0854 H   0  0  0  0  0  0  0  0  0  0  0  0
  1  2  2  0  0  0  0
  2  3  1  0  0  0  0
  2 14  1  0  0  0  0
  3  4  1  0  0  0  0
  3 33  1  0  0  0  0
  4  5  1  0  0  0  0
  4 13  2  0  0  0  0
  5  6  2  0  0  0  0
  5 34  1  0  0  0  0
  6  7  1  0  0  0  0
  7  8  2  0  0  0  0
  7 35  1  0  0  0  0
  8  9  1  0  0  0  0
  8 13  1  0  0  0  0
  9 10  2  0  0  0  0
  9 36  1  0  0  0  0
 10 11  1  0  0  0  0
 10 37  1  0  0  0  0
 11 12  2  0  0  0  0
 11 38  1  0  0  0  0
 12 13  1  0  0  0  0
 12 39  1  0  0  0  0
 14 15  1  0  0  0  0
 14 23  1  0  0  0  0
 14 32  1  0  0  0  0
 15 16  1  0  0  0  0
 16 17  1  0  0  0  0
 16 40  1  0  0  0  0
 16 41  1  0  0  0  0
 17 18  1  0  0  0  0
 17 42  1  0  0  0  0
 17 43  1  0  0  0  0
 18 19  1  0  0  0  0
 19 20  1  0  0  0  0
 19 21  1  0  0  0  0
 19 22  1  0  0  0  0
 23 24  1  0  0  0  0
 23 44  1  0  0  0  0
 23 45  1  0  0  0  0
 24 25  1  0  0  0  0
 24 46  1  0  0  0  0
 24 47  1  0  0  0  0
 25 26  1  0  0  0  0
 26 27  1  0  0  0  0
 26 32  2  0  0  0  0
 27 28  2  0  0  0  0
 27 48  1  0  0  0  0
 28 29  1  0  0  0  0
 28 49  1  0  0  0  0
 29 30  1  0  0  0  0
 29 31  2  0  0  0  0
 31 32  1  0  0  0  0
 31 50  1  0  0  0  0
M  END
$$$$
