CatS_132
 OpenBabel05281909343D

 91 96  0  0  1  0  0  0  0  0999 V2000
  -13.4829    9.5012  -11.5160 C   0  0  0  0  0  0  0  0  0  0  0  0
  -12.2090    9.2410  -10.8969 C   0  0  0  0  0  0  0  0  0  0  0  0
  -11.2200    9.2620  -11.7781 C   0  0  0  0  0  0  0  0  0  0  0  0
  -11.7380    9.5969  -13.4469 S   0  0  0  0  0  0  0  0  0  0  0  0
  -13.4082    9.7040  -12.8171 C   0  0  0  0  0  0  0  0  0  0  0  0
   -9.8630    9.0500  -11.5120 N   0  0  0  0  0  0  0  0  0  0  0  0
   -9.3049    8.7550  -10.3119 C   0  0  0  0  0  0  0  0  0  0  0  0
   -9.7859    7.8669   -9.6020 O   0  0  0  0  0  0  0  0  0  0  0  0
   -8.2079    9.4440   -9.9020 N   0  0  0  0  0  0  0  0  0  0  0  0
   -7.4450   10.3310  -10.8179 C   0  0  0  0  0  0  0  0  0  0  0  0
   -6.2850   11.1671  -10.2170 C   0  0  0  0  0  0  0  0  0  0  0  0
   -5.6529   10.5089   -9.0040 C   0  0  0  0  0  0  0  0  0  0  0  0
   -6.3350    9.6581   -8.2369 C   0  0  0  0  0  0  0  0  0  0  0  0
   -5.4021    9.2751   -7.2470 C   0  0  0  0  0  0  0  0  0  0  0  0
   -4.2700    9.9020   -7.4871 N   0  0  0  0  0  0  0  0  0  0  0  0
   -4.3771   10.6969   -8.5740 N   0  0  0  0  0  0  0  0  0  0  0  0
   -3.2631   11.4760   -9.1329 C   0  0  0  0  0  0  0  0  0  0  0  0
   -3.1050   12.9480   -8.7061 C   0  0  2  0  0  0  0  0  0  0  0  0
   -2.5421   12.9819   -7.2689 C   0  0  0  0  0  0  0  0  0  0  0  0
   -2.1659   14.3320   -6.8128 N   0  3  0  0  0  0  0  0  0  0  0  0
   -1.2891   14.9890   -7.8051 C   0  0  0  0  0  0  0  0  0  0  0  0
   -0.8660   16.3859   -7.3549 C   0  0  0  0  0  0  0  0  0  0  0  0
   -0.2000   16.3250   -5.9869 C   0  0  0  0  0  0  0  0  0  0  0  0
   -1.1109   15.6271   -4.9930 C   0  0  0  0  0  0  0  0  0  0  0  0
   -1.4920   14.2490   -5.5140 C   0  0  0  0  0  0  0  0  0  0  0  0
   -4.3659   13.6301   -8.7570 O   0  0  0  0  0  0  0  0  0  0  0  0
   -5.5689    8.3379   -6.1490 C   0  0  0  0  0  0  0  0  0  0  0  0
   -4.5441    7.5111   -5.7250 C   0  0  0  0  0  0  0  0  0  0  0  0
   -4.7188    6.6681   -4.6559 C   0  0  0  0  0  0  0  0  0  0  0  0
   -5.9120    6.6130   -3.9661 C   0  0  0  0  0  0  0  0  0  0  0  0
   -6.9491    7.4239   -4.4109 C   0  0  0  0  0  0  0  0  0  0  0  0
   -6.7791    8.2670   -5.4859 C   0  0  0  0  0  0  0  0  0  0  0  0
   -8.5591    7.4501   -3.6120 S   0  0  0  0  0  0  0  0  0  0  0  0
   -9.1129    9.1729   -3.5550 C   0  0  0  0  0  0  0  0  0  0  0  0
   -7.9820   10.0490   -2.9750 C   0  0  0  0  0  0  0  0  0  0  0  0
   -8.4780   11.0148   -1.9811 N   0  3  2  0  0  0  0  0  0  0  0  0
   -9.7560   11.5929   -2.3940 C   0  0  0  0  0  0  0  0  0  0  0  0
  -10.2959   12.5339   -1.3211 C   0  0  0  0  0  0  0  0  0  0  0  0
   -9.3141   13.6500   -0.9940 C   0  0  2  0  0  0  0  0  0  0  0  0
   -7.9470   13.0561   -0.7089 C   0  0  0  0  0  0  0  0  0  0  0  0
   -7.5039   12.0921   -1.8020 C   0  0  0  0  0  0  0  0  0  0  0  0
   -5.9119    5.6340   -2.7909 C   0  0  0  0  0  0  0  0  0  0  0  0
   -5.7481    6.3180   -1.5931 F   0  0  0  0  0  0  0  0  0  0  0  0
   -7.1140    4.9351   -2.6920 F   0  0  0  0  0  0  0  0  0  0  0  0
   -4.9140    4.6689   -2.8610 F   0  0  0  0  0  0  0  0  0  0  0  0
   -7.7791    9.2601   -8.5001 C   0  0  0  0  0  0  0  0  0  0  0  0
   -9.6931   14.2309   -0.0150 F   0  0  0  0  0  0  0  0  0  0  0  0
   -9.2400   14.5401   -2.0591 H   0  0  0  0  0  0  0  0  0  0  0  0
   -2.3571   13.4950   -9.4649 H   0  0  0  0  0  0  0  0  0  0  0  0
  -14.3430    9.5249  -11.0071 H   0  0  0  0  0  0  0  0  0  0  0  0
  -12.0870    9.0660   -9.9200 H   0  0  0  0  0  0  0  0  0  0  0  0
  -14.2039    9.8980  -13.3920 H   0  0  0  0  0  0  0  0  0  0  0  0
   -9.3279    9.1181  -12.2021 H   0  0  0  0  0  0  0  0  0  0  0  0
   -6.9640    9.6261  -11.6641 H   0  0  0  0  0  0  0  0  0  0  0  0
   -8.1960   11.1090  -11.3412 H   0  0  0  0  0  0  0  0  0  0  0  0
   -6.7100   12.2310   -9.8610 H   0  0  0  0  0  0  0  0  0  0  0  0
   -5.4519   11.3440  -11.0630 H   0  0  0  0  0  0  0  0  0  0  0  0
   -3.3339   11.4421  -10.3309 H   0  0  0  0  0  0  0  0  0  0  0  0
   -2.2641   10.8931   -8.8109 H   0  0  0  0  0  0  0  0  0  0  0  0
   -3.4260   12.5611   -6.5740 H   0  0  0  0  0  0  0  0  0  0  0  0
   -1.6080   12.2349   -7.1678 H   0  0  0  0  0  0  0  0  0  0  0  0
   -1.8190   15.0879   -8.8760 H   0  0  0  0  0  0  0  0  0  0  0  0
   -0.3039   14.3160   -7.9440 H   0  0  0  0  0  0  0  0  0  0  0  0
   -0.1081   16.8480   -8.1621 H   0  0  0  0  0  0  0  0  0  0  0  0
   -1.8279   17.1000   -7.2830 H   0  0  0  0  0  0  0  0  0  0  0  0
    0.8481   15.7460   -6.0749 H   0  0  0  0  0  0  0  0  0  0  0  0
   -0.0010   17.4409   -5.5950 H   0  0  0  0  0  0  0  0  0  0  0  0
   -0.5009   15.5199   -3.9650 H   0  0  0  0  0  0  0  0  0  0  0  0
   -2.0899   16.2929   -4.7931 H   0  0  0  0  0  0  0  0  0  0  0  0
   -2.2281   13.7131   -4.7320 H   0  0  0  0  0  0  0  0  0  0  0  0
   -0.4890   13.5930   -5.5970 H   0  0  0  0  0  0  0  0  0  0  0  0
   -4.2719   14.5951   -8.4901 H   0  0  0  0  0  0  0  0  0  0  0  0
   -3.6650    7.5281   -6.1980 H   0  0  0  0  0  0  0  0  0  0  0  0
   -3.9600    6.0840   -4.3691 H   0  0  0  0  0  0  0  0  0  0  0  0
   -7.5380    8.8470   -5.7830 H   0  0  0  0  0  0  0  0  0  0  0  0
  -10.0862    9.2550   -2.8580 H   0  0  0  0  0  0  0  0  0  0  0  0
   -9.4180    9.5390   -4.6560 H   0  0  0  0  0  0  0  0  0  0  0  0
   -7.4120   10.6329   -3.8550 H   0  0  0  0  0  0  0  0  0  0  0  0
   -7.1899    9.3109   -2.4541 H   0  0  0  0  0  0  0  0  0  0  0  0
   -9.5791   12.2060   -3.4120 H   0  0  0  0  0  0  0  0  0  0  0  0
  -10.5792   10.7479   -2.6160 H   0  0  0  0  0  0  0  0  0  0  0  0
  -10.5000   11.9221   -0.3080 H   0  0  0  0  0  0  0  0  0  0  0  0
  -11.3351   13.0029   -1.6999 H   0  0  0  0  0  0  0  0  0  0  0  0
   -7.9510   12.4901    0.3499 H   0  0  0  0  0  0  0  0  0  0  0  0
   -7.1639   13.9650   -0.6609 H   0  0  0  0  0  0  0  0  0  0  0  0
   -6.4459   11.6090   -1.5060 H   0  0  0  0  0  0  0  0  0  0  0  0
   -7.3620   12.7151   -2.8200 H   0  0  0  0  0  0  0  0  0  0  0  0
   -7.9050    8.0910   -8.2590 H   0  0  0  0  0  0  0  0  0  0  0  0
   -8.4988    9.8929   -7.7791 H   0  0  0  0  0  0  0  0  0  0  0  0
   -2.9236   14.8337   -6.7323 H   0  0  0  0  0  0  0  0  0  0  0  0
   -8.6083   10.5784   -1.1905 H   0  0  0  0  0  0  0  0  0  0  0  0
  1  2  1  0  0  0  0
  1  5  2  0  0  0  0
  1 50  1  0  0  0  0
  2  3  2  0  0  0  0
  2 51  1  0  0  0  0
  3  4  1  0  0  0  0
  3  6  1  0  0  0  0
  4  5  1  0  0  0  0
  5 52  1  0  0  0  0
  6  7  1  0  0  0  0
  6 53  1  0  0  0  0
  7  8  2  0  0  0  0
  7  9  1  0  0  0  0
  9 10  1  0  0  0  0
  9 46  1  0  0  0  0
 10 11  1  0  0  0  0
 10 54  1  0  0  0  0
 10 55  1  0  0  0  0
 11 12  1  0  0  0  0
 11 56  1  0  0  0  0
 11 57  1  0  0  0  0
 12 13  2  0  0  0  0
 12 16  1  0  0  0  0
 13 14  1  0  0  0  0
 13 46  1  0  0  0  0
 14 15  2  0  0  0  0
 14 27  1  0  0  0  0
 15 16  1  0  0  0  0
 16 17  1  0  0  0  0
 17 18  1  0  0  0  0
 17 58  1  0  0  0  0
 17 59  1  0  0  0  0
 18 19  1  0  0  0  0
 18 26  1  0  0  0  0
 18 49  1  6  0  0  0
 19 20  1  0  0  0  0
 19 60  1  0  0  0  0
 19 61  1  0  0  0  0
 20 21  1  0  0  0  0
 20 25  1  0  0  0  0
 20 90  1  0  0  0  0
 21 22  1  0  0  0  0
 21 62  1  0  0  0  0
 21 63  1  0  0  0  0
 22 23  1  0  0  0  0
 22 64  1  0  0  0  0
 22 65  1  0  0  0  0
 23 24  1  0  0  0  0
 23 66  1  0  0  0  0
 23 67  1  0  0  0  0
 24 25  1  0  0  0  0
 24 68  1  0  0  0  0
 24 69  1  0  0  0  0
 25 70  1  0  0  0  0
 25 71  1  0  0  0  0
 26 72  1  0  0  0  0
 27 28  2  0  0  0  0
 27 32  1  0  0  0  0
 28 29  1  0  0  0  0
 28 73  1  0  0  0  0
 29 30  2  0  0  0  0
 29 74  1  0  0  0  0
 30 31  1  0  0  0  0
 30 42  1  0  0  0  0
 31 32  2  0  0  0  0
 31 33  1  0  0  0  0
 32 75  1  0  0  0  0
 33 34  1  0  0  0  0
 34 35  1  0  0  0  0
 34 76  1  0  0  0  0
 34 77  1  0  0  0  0
 35 36  1  0  0  0  0
 35 78  1  0  0  0  0
 35 79  1  0  0  0  0
 36 37  1  0  0  0  0
 36 41  1  0  0  0  0
 36 91  1  1  0  0  0
 37 38  1  0  0  0  0
 37 80  1  0  0  0  0
 37 81  1  0  0  0  0
 38 39  1  0  0  0  0
 38 82  1  0  0  0  0
 38 83  1  0  0  0  0
 39 40  1  0  0  0  0
 39 47  1  0  0  0  0
 39 48  1  6  0  0  0
 40 41  1  0  0  0  0
 40 84  1  0  0  0  0
 40 85  1  0  0  0  0
 41 86  1  0  0  0  0
 41 87  1  0  0  0  0
 42 43  1  0  0  0  0
 42 44  1  0  0  0  0
 42 45  1  0  0  0  0
 46 88  1  0  0  0  0
 46 89  1  0  0  0  0
M  CHG  2  20   1  36   1
M  END
$$$$
